5M5Q_7K1_A_302
     RDKit          3D

 72 78  0  0  0  0  0  0  0  0999 V2000
   29.7580  -29.4840   16.2300 C   0  0  0  0  0  0  0  0  0  0  0  0
   28.6870  -28.5180   19.8260 C   0  0  0  0  0  0  0  0  0  0  0  0
   27.6780  -27.6290   19.3790 C   0  0  0  0  0  0  0  0  0  0  0  0
   29.0340  -28.8660   15.2690 C   0  0  0  0  0  0  0  0  0  0  0  0
   31.4160  -33.0030   16.5190 C   0  0  0  0  0  0  0  0  0  0  0  0
   29.2250  -29.0050   13.7810 C   0  0  0  0  0  0  0  0  0  0  0  0
   29.0230  -30.2210   13.0610 C   0  0  0  0  0  0  0  0  0  0  0  0
   29.2530  -30.2170   11.6770 C   0  0  0  0  0  0  0  0  0  0  0  0
   29.6460  -29.0430   11.0080 C   0  0  0  0  0  0  0  0  0  0  0  0
   29.7960  -27.8500   11.7300 C   0  0  0  0  0  0  0  0  0  0  0  0
   29.6170  -27.8350   13.1140 C   0  0  0  0  0  0  0  0  0  0  0  0
   28.5340  -31.4850   13.7030 C   0  0  0  0  0  0  0  0  0  0  0  0
   27.4280  -31.4530   14.5900 C   0  0  0  0  0  0  0  0  0  0  0  0
   26.9720  -32.6250   15.2110 C   0  0  0  0  0  0  0  0  0  0  0  0
   27.5790  -33.8600   14.9220 C   0  0  0  0  0  0  0  0  0  0  0  0
   28.6540  -33.9070   14.0200 C   0  0  0  0  0  0  0  0  0  0  0  0
   29.1280  -32.7330   13.3980 C   0  0  0  0  0  0  0  0  0  0  0  0
   29.8530  -29.0530    9.4820 C   0  0  0  0  0  0  0  0  0  0  0  0
   29.8540  -34.5630   17.6550 C   0  0  0  0  0  0  0  0  0  0  0  0
   30.1420  -35.5640   18.8020 C   0  0  0  0  0  0  0  0  0  0  0  0
   32.1120  -36.4260   17.7110 C   0  0  0  0  0  0  0  0  0  0  0  0
   27.4480  -27.4350   18.0380 N   0  0  0  0  0  0  0  0  0  0  0  0
   29.1890  -29.0030   17.5370 C   0  0  0  0  0  0  0  0  0  0  0  0
   28.1960  -28.1090   17.1350 C   0  0  0  0  0  0  0  0  0  0  0  0
   28.1920  -28.0330   15.7910 N   0  0  0  0  0  0  0  0  0  0  0  0
   30.8590  -30.5040   16.0540 C   0  0  0  0  0  0  0  0  0  0  0  0
   30.5190  -31.8080   16.8330 C   0  0  0  0  0  0  0  0  0  0  0  0
   29.4930  -29.2080   18.8960 C   0  0  0  0  0  0  0  0  0  0  0  0
   32.4390  -32.7550   15.8750 O   0  0  0  0  0  0  0  0  0  0  0  0
   31.1160  -34.2780   16.9390 N   0  0  0  0  0  0  0  0  0  0  0  0
   32.0150  -35.3900   16.5560 C   0  0  0  0  0  0  0  0  0  0  0  0
   30.8230  -36.7280   18.2870 O   0  0  0  0  0  0  0  0  0  0  0  0
   31.6450  -36.0460   15.2460 C   0  0  0  0  0  0  0  0  0  0  0  0
   30.5720  -37.1790   13.7850 C   0  0  0  0  0  0  0  0  0  0  0  0
   31.5910  -36.4630   13.1540 C   0  0  0  0  0  0  0  0  0  0  0  0
   31.8090  -36.5630   11.7700 C   0  0  0  0  0  0  0  0  0  0  0  0
   30.9450  -37.4160   11.0490 C   0  0  0  0  0  0  0  0  0  0  0  0
   29.9100  -38.1330   11.6940 C   0  0  0  0  0  0  0  0  0  0  0  0
   29.7000  -38.0290   13.0880 C   0  0  0  0  0  0  0  0  0  0  0  0
   30.6700  -36.8470   15.0830 N   0  0  0  0  0  0  0  0  0  0  0  0
   32.2290  -35.7450   14.1110 N   0  0  0  0  0  0  0  0  0  0  0  0
   28.8427  -28.6710   20.9041 H   0  0  0  0  0  0  0  0  0  0  0  0
   27.0694  -27.0857   20.1169 H   0  0  0  0  0  0  0  0  0  0  0  0
   29.1239  -31.1476   11.1049 H   0  0  0  0  0  0  0  0  0  0  0  0
   30.0563  -26.9206   11.2023 H   0  0  0  0  0  0  0  0  0  0  0  0
   29.7831  -26.9071   13.6809 H   0  0  0  0  0  0  0  0  0  0  0  0
   26.9218  -30.4978   14.7934 H   0  0  0  0  0  0  0  0  0  0  0  0
   26.1374  -32.5779   15.9260 H   0  0  0  0  0  0  0  0  0  0  0  0
   27.2146  -34.7819   15.3987 H   0  0  0  0  0  0  0  0  0  0  0  0
   29.1327  -34.8716   13.7955 H   0  0  0  0  0  0  0  0  0  0  0  0
   29.9574  -32.7873   12.6775 H   0  0  0  0  0  0  0  0  0  0  0  0
   30.9287  -29.1050    9.2582 H   0  0  0  0  0  0  0  0  0  0  0  0
   29.3457  -29.9277    9.0489 H   0  0  0  0  0  0  0  0  0  0  0  0
   29.4324  -28.1335    9.0489 H   0  0  0  0  0  0  0  0  0  0  0  0
   29.4477  -33.6300   18.0726 H   0  0  0  0  0  0  0  0  0  0  0  0
   29.1203  -34.9954   16.9588 H   0  0  0  0  0  0  0  0  0  0  0  0
   30.7750  -35.0775   19.5587 H   0  0  0  0  0  0  0  0  0  0  0  0
   29.1892  -35.8759   19.2546 H   0  0  0  0  0  0  0  0  0  0  0  0
   32.5496  -37.3551   17.3168 H   0  0  0  0  0  0  0  0  0  0  0  0
   32.7397  -35.9898   18.5020 H   0  0  0  0  0  0  0  0  0  0  0  0
   27.5950  -27.3935   15.2473 H   0  0  0  0  0  0  0  0  0  0  0  0
   30.9686  -30.7384   14.9849 H   0  0  0  0  0  0  0  0  0  0  0  0
   31.7980  -30.0875   16.4474 H   0  0  0  0  0  0  0  0  0  0  0  0
   30.6014  -31.5935   17.9087 H   0  0  0  0  0  0  0  0  0  0  0  0
   29.5046  -32.0960   16.5199 H   0  0  0  0  0  0  0  0  0  0  0  0
   30.3126  -29.8688   19.2149 H   0  0  0  0  0  0  0  0  0  0  0  0
   33.0089  -34.9503   16.3864 H   0  0  0  0  0  0  0  0  0  0  0  0
   32.6143  -36.0035   11.2716 H   0  0  0  0  0  0  0  0  0  0  0  0
   31.0796  -37.5253    9.9627 H   0  0  0  0  0  0  0  0  0  0  0  0
   29.2547  -38.7853   11.0981 H   0  0  0  0  0  0  0  0  0  0  0  0
   28.8981  -38.5833   13.5977 H   0  0  0  0  0  0  0  0  0  0  0  0
   30.0506  -37.1886   15.8317 H   0  0  0  0  0  0  0  0  0  0  0  0
 18  9  1  0
  9  8  2  0
  9 10  1  0
 37 38  1  0
 37 36  2  0
  8  7  1  0
 38 39  2  0
 10 11  2  0
 36 35  1  0
  7 12  1  0
  7  6  2  0
 39 34  1  0
 11  6  1  0
 35 34  2  0
 35 41  1  0
 17 12  1  0
 17 16  2  0
 12 13  2  0
  6  4  1  0
 34 40  1  0
 16 15  1  0
 41 33  2  0
 13 14  1  0
 15 14  2  0
 40 33  1  0
 33 31  1  0
  4 25  1  0
  4  1  2  0
 25 24  1  0
 29  5  2  0
 26  1  1  0
 26 27  1  0
  1 23  1  0
  5 27  1  0
  5 30  1  0
 31 30  1  0
 31 21  1  0
 30 19  1  0
 24 23  2  0
 24 22  1  0
 23 28  1  0
 19 20  1  0
 21 32  1  0
 22  3  2  0
 32 20  1  0
 28  2  2  0
  3  2  1  0
  2 42  1  0
  3 43  1  0
  8 44  1  0
 10 45  1  0
 11 46  1  0
 13 47  1  0
 14 48  1  0
 15 49  1  0
 16 50  1  0
 17 51  1  0
 18 52  1  0
 18 53  1  0
 18 54  1  0
 19 55  1  0
 19 56  1  0
 20 57  1  0
 20 58  1  0
 21 59  1  0
 21 60  1  0
 25 61  1  0
 26 62  1  0
 26 63  1  0
 27 64  1  0
 27 65  1  0
 28 66  1  0
 31 67  1  0
 36 68  1  0
 37 69  1  0
 38 70  1  0
 39 71  1  0
 40 72  1  0
A    1
C1
A    2
C2
A    3
C3
A    4
C11
A    5
C12
A    6
C14
A    7
C15
A    8
C16
A    9
C17
A   10
C18
A   11
C19
A   12
C20
A   13
C21
A   14
C22
A   15
C23
A   16
C24
A   17
C25
A   18
C26
A   19
C28
A   20
C29
A   21
C30
A   22
N4
A   23
C5
A   24
C6
A   25
N7
A   26
C8
A   27
C9
A   28
C10
A   29
O13
A   30
N27
A   31
C31
A   32
O32
A   33
C33
A   34
C34
A   35
C35
A   36
C36
A   37
C37
A   38
C38
A   39
C39
A   40
N40
A   41
N41
M  END
