5M6H_7J6_A_403
     RDKit          3D

 74 78  0  0  0  0  0  0  0  0999 V2000
  -15.4280  -21.7040   -0.3500 C   0  0  0  0  0  0  0  0  0  0  0  0
  -15.9320  -20.3700   -0.8280 C   0  0  0  0  0  0  0  0  0  0  0  0
  -15.8310  -20.2340   -2.3330 C   0  0  0  0  0  0  0  0  0  0  0  0
  -16.1590  -18.8730   -2.7890 N   0  0  0  0  0  0  0  0  0  0  0  0
  -16.3340  -18.8470   -4.2390 C   0  0  0  0  0  0  0  0  0  0  0  0
  -15.0590  -19.0130   -5.0590 C   0  0  0  0  0  0  0  0  0  0  0  0
  -16.1180  -18.3050   -8.5160 C   0  0  0  0  0  0  0  0  0  0  0  0
  -16.7950  -19.5690   -9.0630 C   0  0  0  0  0  0  0  0  0  0  0  0
  -16.6640  -17.0930   -9.2540 C   0  0  0  0  0  0  0  0  0  0  0  0
  -14.6220  -18.4090   -8.5840 C   0  0  0  0  0  0  0  0  0  0  0  0
  -12.5110  -18.4390   -9.4800 C   0  0  0  0  0  0  0  0  0  0  0  0
  -11.9000  -18.6930   -8.2680 C   0  0  0  0  0  0  0  0  0  0  0  0
   -9.5900  -20.6980   -9.6660 C   0  0  0  0  0  0  0  0  0  0  0  0
   -9.4140  -22.9700   -8.9280 C   0  0  0  0  0  0  0  0  0  0  0  0
   -9.8760  -22.5960   -7.6900 C   0  0  0  0  0  0  0  0  0  0  0  0
  -10.1890  -21.2710   -7.4340 C   0  0  0  0  0  0  0  0  0  0  0  0
  -12.7360  -18.8320   -7.1700 C   0  0  0  0  0  0  0  0  0  0  0  0
  -14.1120  -18.6810   -7.3030 C   0  0  0  0  0  0  0  0  0  0  0  0
  -15.3090  -17.8650   -2.1250 C   0  0  0  0  0  0  0  0  0  0  0  0
  -15.5530  -17.9060   -0.6230 C   0  0  0  0  0  0  0  0  0  0  0  0
  -16.8320  -16.0620   -2.4070 O   0  0  0  0  0  0  0  0  0  0  0  0
  -12.8020  -15.7270   -4.6700 C   0  0  0  0  0  0  0  0  0  0  0  0
  -13.3180  -15.8720   -3.2650 C   0  0  0  0  0  0  0  0  0  0  0  0
  -14.0110  -19.3800   -4.5520 O   0  0  0  0  0  0  0  0  0  0  0  0
  -15.1610  -18.7340   -6.3830 N   0  0  0  0  0  0  0  0  0  0  0  0
  -16.3820  -18.1840   -6.9930 C   0  0  0  0  0  0  0  0  0  0  0  0
  -13.8300  -18.2910   -9.6490 N   0  0  0  0  0  0  0  0  0  0  0  0
  -10.4040  -18.8690   -8.1390 C   0  0  0  0  0  0  0  0  0  0  0  0
  -10.0420  -20.3060   -8.4160 C   0  0  0  0  0  0  0  0  0  0  0  0
   -9.2700  -22.0200   -9.9180 C   0  0  0  0  0  0  0  0  0  0  0  0
  -15.1460  -19.2720   -0.1750 N   0  0  0  0  0  0  0  0  0  0  0  0
  -15.7030  -16.4640   -2.6120 C   0  0  0  0  0  0  0  0  0  0  0  0
  -14.7800  -15.7110   -3.2650 N   0  0  0  0  0  0  0  0  0  0  0  0
  -15.1390  -14.4090   -3.8430 C   0  0  0  0  0  0  0  0  0  0  0  0
  -14.5510  -14.2830   -5.2320 C   0  0  0  0  0  0  0  0  0  0  0  0
  -13.1380  -14.4550   -5.2240 O   0  0  0  0  0  0  0  0  0  0  0  0
  -15.4216  -21.7209    0.7499 H   0  0  0  0  0  0  0  0  0  0  0  0
  -16.0871  -22.5008   -0.7251 H   0  0  0  0  0  0  0  0  0  0  0  0
  -14.4067  -21.8660   -0.7251 H   0  0  0  0  0  0  0  0  0  0  0  0
  -16.9942  -20.2953   -0.5520 H   0  0  0  0  0  0  0  0  0  0  0  0
  -16.5298  -20.9430   -2.8010 H   0  0  0  0  0  0  0  0  0  0  0  0
  -14.7918  -20.4475   -2.6236 H   0  0  0  0  0  0  0  0  0  0  0  0
  -16.7863  -17.8811   -4.5082 H   0  0  0  0  0  0  0  0  0  0  0  0
  -16.9636  -19.7156   -4.4820 H   0  0  0  0  0  0  0  0  0  0  0  0
  -17.1313  -20.1968   -8.2247 H   0  0  0  0  0  0  0  0  0  0  0  0
  -17.6612  -19.2840   -9.6782 H   0  0  0  0  0  0  0  0  0  0  0  0
  -16.0778  -20.1321   -9.6782 H   0  0  0  0  0  0  0  0  0  0  0  0
  -17.0024  -16.3417   -8.5252 H   0  0  0  0  0  0  0  0  0  0  0  0
  -15.8734  -16.6613   -9.8853 H   0  0  0  0  0  0  0  0  0  0  0  0
  -17.5112  -17.3991   -9.8853 H   0  0  0  0  0  0  0  0  0  0  0  0
  -11.8685  -18.3523  -10.3686 H   0  0  0  0  0  0  0  0  0  0  0  0
   -9.4846  -19.9503  -10.4659 H   0  0  0  0  0  0  0  0  0  0  0  0
   -9.1602  -24.0212   -9.1292 H   0  0  0  0  0  0  0  0  0  0  0  0
   -9.9979  -23.3509   -6.8992 H   0  0  0  0  0  0  0  0  0  0  0  0
  -10.5586  -20.9822   -6.4390 H   0  0  0  0  0  0  0  0  0  0  0  0
  -12.3064  -19.0640   -6.1843 H   0  0  0  0  0  0  0  0  0  0  0  0
  -14.2558  -18.0805   -2.3580 H   0  0  0  0  0  0  0  0  0  0  0  0
  -14.9459  -17.1413   -0.1165 H   0  0  0  0  0  0  0  0  0  0  0  0
  -16.6062  -17.7005   -0.3809 H   0  0  0  0  0  0  0  0  0  0  0  0
  -13.2432  -16.5168   -5.2957 H   0  0  0  0  0  0  0  0  0  0  0  0
  -11.7056  -15.8128   -4.6447 H   0  0  0  0  0  0  0  0  0  0  0  0
  -13.0581  -16.8688   -2.8792 H   0  0  0  0  0  0  0  0  0  0  0  0
  -12.8626  -15.1028   -2.6240 H   0  0  0  0  0  0  0  0  0  0  0  0
  -16.5267  -17.1331   -6.7022 H   0  0  0  0  0  0  0  0  0  0  0  0
  -17.2929  -18.7122   -6.6748 H   0  0  0  0  0  0  0  0  0  0  0  0
  -10.0898  -18.6016   -7.1193 H   0  0  0  0  0  0  0  0  0  0  0  0
   -9.8940  -18.2161   -8.8626 H   0  0  0  0  0  0  0  0  0  0  0  0
   -8.8995  -22.3147  -10.9109 H   0  0  0  0  0  0  0  0  0  0  0  0
  -15.2807  -19.3353    0.8442 H   0  0  0  0  0  0  0  0  0  0  0  0
  -14.1604  -19.4004   -0.4453 H   0  0  0  0  0  0  0  0  0  0  0  0
  -14.7433  -13.6050   -3.2050 H   0  0  0  0  0  0  0  0  0  0  0  0
  -16.2344  -14.3294   -3.9045 H   0  0  0  0  0  0  0  0  0  0  0  0
  -14.7862  -13.2846   -5.6293 H   0  0  0  0  0  0  0  0  0  0  0  0
  -14.9885  -15.0715   -5.8620 H   0  0  0  0  0  0  0  0  0  0  0  0
 30 13  2  0
 30 14  1  0
 13 29  1  0
 27 11  1  0
 27 10  2  0
 11 12  2  0
  9  7  1  0
  8  7  1  0
 14 15  2  0
 10  7  1  0
 10 18  1  0
  7 26  1  0
 29 28  1  0
 29 16  2  0
 12 28  1  0
 12 17  1  0
 15 16  1  0
 18 17  2  0
 18 25  1  0
 26 25  1  0
 25  6  1  0
 35 36  1  0
 35 34  1  0
 36 22  1  0
  6 24  2  0
  6  5  1  0
 22 23  1  0
  5  4  1  0
 34 33  1  0
 23 33  1  0
 33 32  1  0
  4  3  1  0
  4 19  1  0
 32 21  2  0
 32 19  1  0
  3  2  1  0
 19 20  1  0
  2  1  1  0
  2 31  1  0
 20 31  1  0
  1 37  1  0
  1 38  1  0
  1 39  1  0
  2 40  1  0
  3 41  1  0
  3 42  1  0
  5 43  1  0
  5 44  1  0
  8 45  1  0
  8 46  1  0
  8 47  1  0
  9 48  1  0
  9 49  1  0
  9 50  1  0
 11 51  1  0
 13 52  1  0
 14 53  1  0
 15 54  1  0
 16 55  1  0
 17 56  1  0
 19 57  1  0
 20 58  1  0
 20 59  1  0
 22 60  1  0
 22 61  1  0
 23 62  1  0
 23 63  1  0
 26 64  1  0
 26 65  1  0
 28 66  1  0
 28 67  1  0
 30 68  1  0
 31 69  1  0
 31 70  1  0
 34 71  1  0
 34 72  1  0
 35 73  1  0
 35 74  1  0
M  CHG  1  31   1
A    1
C1
A    2
C2
A    3
C3
A    4
N4
A    5
C5
A    6
C6
A    7
C10
A    8
C11
A    9
C12
A   10
C13
A   11
C15
A   12
C16
A   13
C19
A   14
C21
A   15
C22
A   16
C23
A   17
C24
A   18
C25
A   19
C26
A   20
C27
A   21
O30
A   22
C35
A   23
C36
A   24
O7
A   25
N8
A   26
C9
A   27
N14
A   28
C17
A   29
C18
A   30
C20
A   31
N28
A   32
C29
A   33
N31
A   34
C32
A   35
C33
A   36
O34
M  END
