5M6L_7H9_A_403
     RDKit          3D

 78 82  0  0  0  0  0  0  0  0999 V2000
  -15.5950  -21.9270   -0.4360 C   0  0  0  0  0  0  0  0  0  0  0  0
  -16.0490  -20.5560   -0.8410 C   0  0  0  0  0  0  0  0  0  0  0  0
  -15.9090  -20.3350   -2.3310 C   0  0  0  0  0  0  0  0  0  0  0  0
  -16.2520  -18.9580   -2.7170 N   0  0  0  0  0  0  0  0  0  0  0  0
  -16.4110  -18.8640   -4.1660 C   0  0  0  0  0  0  0  0  0  0  0  0
  -15.1490  -19.1080   -4.9890 C   0  0  0  0  0  0  0  0  0  0  0  0
  -16.2120  -18.3590   -8.4350 C   0  0  0  0  0  0  0  0  0  0  0  0
  -16.9340  -19.5250   -9.1120 C   0  0  0  0  0  0  0  0  0  0  0  0
  -16.6880  -17.0530   -9.0520 C   0  0  0  0  0  0  0  0  0  0  0  0
  -14.7440  -18.5040   -8.5060 C   0  0  0  0  0  0  0  0  0  0  0  0
  -12.6340  -18.5020   -9.4030 C   0  0  0  0  0  0  0  0  0  0  0  0
  -12.0310  -18.8800   -8.2190 C   0  0  0  0  0  0  0  0  0  0  0  0
  -10.1800  -21.4760   -7.4680 C   0  0  0  0  0  0  0  0  0  0  0  0
   -9.3540  -23.0640   -8.9970 C   0  0  0  0  0  0  0  0  0  0  0  0
   -9.2770  -22.1300   -9.9880 C   0  0  0  0  0  0  0  0  0  0  0  0
   -9.6710  -20.8350   -9.6990 C   0  0  0  0  0  0  0  0  0  0  0  0
  -12.8610  -19.0850   -7.1250 C   0  0  0  0  0  0  0  0  0  0  0  0
  -14.2320  -18.8860   -7.2560 C   0  0  0  0  0  0  0  0  0  0  0  0
  -15.3980  -17.9730   -2.0250 C   0  0  0  0  0  0  0  0  0  0  0  0
  -15.5960  -16.4930   -2.3850 C   0  0  0  0  0  0  0  0  0  0  0  0
  -12.9120  -15.8700   -4.9330 C   0  0  0  0  0  0  0  0  0  0  0  0
  -16.9630  -14.7840   -4.3630 C   0  0  0  0  0  0  0  0  0  0  0  0
  -15.6250  -18.1500   -0.5420 C   0  0  0  0  0  0  0  0  0  0  0  0
  -14.0920  -19.4090   -4.4620 O   0  0  0  0  0  0  0  0  0  0  0  0
  -15.2710  -18.9750   -6.3330 N   0  0  0  0  0  0  0  0  0  0  0  0
  -16.4900  -18.3850   -6.9120 C   0  0  0  0  0  0  0  0  0  0  0  0
  -13.9480  -18.3210   -9.5590 N   0  0  0  0  0  0  0  0  0  0  0  0
  -10.5390  -19.0800   -8.1230 C   0  0  0  0  0  0  0  0  0  0  0  0
  -10.1260  -20.4930   -8.4360 C   0  0  0  0  0  0  0  0  0  0  0  0
   -9.8000  -22.7770   -7.7460 C   0  0  0  0  0  0  0  0  0  0  0  0
   -8.9740  -24.3390   -9.2730 F   0  0  0  0  0  0  0  0  0  0  0  0
  -14.9580  -16.0960   -3.6510 N   0  0  0  0  0  0  0  0  0  0  0  0
  -13.4890  -16.0310   -3.5550 C   0  0  0  0  0  0  0  0  0  0  0  0
  -13.3460  -14.6530   -5.5300 O   0  0  0  0  0  0  0  0  0  0  0  0
  -14.7800  -14.6230   -5.5680 C   0  0  0  0  0  0  0  0  0  0  0  0
  -15.4540  -14.8310   -4.2250 C   0  0  0  0  0  0  0  0  0  0  0  0
  -15.2430  -19.5240   -0.1100 N   0  0  0  0  0  0  0  0  0  0  0  0
  -15.5720  -21.9963    0.6616 H   0  0  0  0  0  0  0  0  0  0  0  0
  -16.2926  -22.6774   -0.8363 H   0  0  0  0  0  0  0  0  0  0  0  0
  -14.5874  -22.1127   -0.8363 H   0  0  0  0  0  0  0  0  0  0  0  0
  -17.1140  -20.4649   -0.5812 H   0  0  0  0  0  0  0  0  0  0  0  0
  -16.5800  -21.0294   -2.8579 H   0  0  0  0  0  0  0  0  0  0  0  0
  -14.8586  -20.5135   -2.6043 H   0  0  0  0  0  0  0  0  0  0  0  0
  -16.7771  -17.8536   -4.4007 H   0  0  0  0  0  0  0  0  0  0  0  0
  -17.1089  -19.6678   -4.4431 H   0  0  0  0  0  0  0  0  0  0  0  0
  -17.3488  -20.1948   -8.3443 H   0  0  0  0  0  0  0  0  0  0  0  0
  -17.7499  -19.1366   -9.7393 H   0  0  0  0  0  0  0  0  0  0  0  0
  -16.2226  -20.0822   -9.7393 H   0  0  0  0  0  0  0  0  0  0  0  0
  -16.9468  -16.3428   -8.2528 H   0  0  0  0  0  0  0  0  0  0  0  0
  -15.8869  -16.6282   -9.6747 H   0  0  0  0  0  0  0  0  0  0  0  0
  -17.5746  -17.2433   -9.6747 H   0  0  0  0  0  0  0  0  0  0  0  0
  -11.9873  -18.3388  -10.2777 H   0  0  0  0  0  0  0  0  0  0  0  0
  -10.5315  -21.2202   -6.4575 H   0  0  0  0  0  0  0  0  0  0  0  0
   -8.9115  -22.3987  -10.9901 H   0  0  0  0  0  0  0  0  0  0  0  0
   -9.6221  -20.0659  -10.4839 H   0  0  0  0  0  0  0  0  0  0  0  0
  -12.4375  -19.4027   -6.1608 H   0  0  0  0  0  0  0  0  0  0  0  0
  -14.3718  -18.1872   -2.3581 H   0  0  0  0  0  0  0  0  0  0  0  0
  -15.1714  -15.8801   -1.5762 H   0  0  0  0  0  0  0  0  0  0  0  0
  -16.6777  -16.3370   -2.5102 H   0  0  0  0  0  0  0  0  0  0  0  0
  -13.2369  -16.7137   -5.5596 H   0  0  0  0  0  0  0  0  0  0  0  0
  -11.8151  -15.8487   -4.8528 H   0  0  0  0  0  0  0  0  0  0  0  0
  -17.4223  -14.7697   -3.3636 H   0  0  0  0  0  0  0  0  0  0  0  0
  -17.2528  -13.8764   -4.9128 H   0  0  0  0  0  0  0  0  0  0  0  0
  -17.3088  -15.6718   -4.9128 H   0  0  0  0  0  0  0  0  0  0  0  0
  -15.0155  -17.4167    0.0065 H   0  0  0  0  0  0  0  0  0  0  0  0
  -16.6928  -17.9963   -0.3273 H   0  0  0  0  0  0  0  0  0  0  0  0
  -16.6516  -17.3672   -6.5274 H   0  0  0  0  0  0  0  0  0  0  0  0
  -17.3959  -18.9552   -6.6584 H   0  0  0  0  0  0  0  0  0  0  0  0
  -10.2154  -18.8361   -7.1004 H   0  0  0  0  0  0  0  0  0  0  0  0
  -10.0648  -18.4208   -8.8651 H   0  0  0  0  0  0  0  0  0  0  0  0
   -9.8575  -23.5588   -6.9743 H   0  0  0  0  0  0  0  0  0  0  0  0
  -13.1082  -16.9585   -3.1024 H   0  0  0  0  0  0  0  0  0  0  0  0
  -13.1964  -15.1752   -2.9288 H   0  0  0  0  0  0  0  0  0  0  0  0
  -15.0920  -13.6437   -5.9600 H   0  0  0  0  0  0  0  0  0  0  0  0
  -15.0916  -15.4635   -6.2056 H   0  0  0  0  0  0  0  0  0  0  0  0
  -15.2002  -14.0162   -3.5310 H   0  0  0  0  0  0  0  0  0  0  0  0
  -15.4111  -19.6188    0.9018 H   0  0  0  0  0  0  0  0  0  0  0  0
  -14.2463  -19.6718   -0.3234 H   0  0  0  0  0  0  0  0  0  0  0  0
 15 16  2  0
 15 14  1  0
 16 29  1  0
 27 11  1  0
 27 10  2  0
 11 12  2  0
 31 14  1  0
  8  7  1  0
  9  7  1  0
 14 30  2  0
 10  7  1  0
 10 18  1  0
 29 28  1  0
 29 13  2  0
  7 26  1  0
 12 28  1  0
 12 17  1  0
 30 13  1  0
 18 17  2  0
 18 25  1  0
 26 25  1  0
 25  6  1  0
 35 34  1  0
 35 36  1  0
 34 21  1  0
  6 24  2  0
  6  5  1  0
 21 33  1  0
 22 36  1  0
 36 32  1  0
  5  4  1  0
 32 33  1  0
 32 20  1  0
  4  3  1  0
  4 19  1  0
 20 19  1  0
  3  2  1  0
 19 23  1  0
  2  1  1  0
  2 37  1  0
 23 37  1  0
  1 38  1  0
  1 39  1  0
  1 40  1  0
  2 41  1  0
  3 42  1  0
  3 43  1  0
  5 44  1  0
  5 45  1  0
  8 46  1  0
  8 47  1  0
  8 48  1  0
  9 49  1  0
  9 50  1  0
  9 51  1  0
 11 52  1  0
 13 53  1  0
 15 54  1  0
 16 55  1  0
 17 56  1  0
 19 57  1  0
 20 58  1  0
 20 59  1  0
 21 60  1  0
 21 61  1  0
 22 62  1  0
 22 63  1  0
 22 64  1  0
 23 65  1  0
 23 66  1  0
 26 67  1  0
 26 68  1  0
 28 69  1  0
 28 70  1  0
 30 71  1  0
 33 72  1  0
 33 73  1  0
 35 74  1  0
 35 75  1  0
 36 76  1  0
 37 77  1  0
 37 78  1  0
M  CHG  1  37   1
A    1
C1
A    2
C2
A    3
C3
A    4
N4
A    5
C5
A    6
C6
A    7
C10
A    8
C11
A    9
C12
A   10
C13
A   11
C15
A   12
C16
A   13
C19
A   14
C21
A   15
C23
A   16
C24
A   17
C25
A   18
C26
A   19
C27
A   20
C28
A   21
C31
A   22
C35
A   23
C36
A   24
O7
A   25
N8
A   26
C9
A   27
N14
A   28
C17
A   29
C18
A   30
C20
A   31
F22
A   32
N29
A   33
C30
A   34
O32
A   35
C33
A   36
C34
A   37
N37
M  END
