5M6U_7KA_A_1101
     RDKit          3D

 44 47  0  0  0  0  0  0  0  0999 V2000
   38.4480   14.0640   31.6650 N   0  0  0  0  0  0  0  0  0  0  0  0
   37.4920   14.1490   32.6830 N   0  0  0  0  0  0  0  0  0  0  0  0
   37.7590   14.6490   33.8450 C   0  0  0  0  0  0  0  0  0  0  0  0
   39.0250   15.1290   34.1410 N   0  0  0  0  0  0  0  0  0  0  0  0
   40.0220   15.0760   33.2160 C   0  0  0  0  0  0  0  0  0  0  0  0
   39.7320   14.5080   31.9040 C   0  0  0  0  0  0  0  0  0  0  0  0
   40.4730   14.3130   30.7610 C   0  0  0  0  0  0  0  0  0  0  0  0
   39.6150   13.7290   29.8280 C   0  0  0  0  0  0  0  0  0  0  0  0
   38.3940   13.5910   30.4060 C   0  0  0  0  0  0  0  0  0  0  0  0
   41.1390   15.4920   33.4520 O   0  0  0  0  0  0  0  0  0  0  0  0
   39.3340   15.7120   35.3750 C   0  0  0  0  0  0  0  0  0  0  0  0
   40.0050   15.0140   36.3760 C   0  0  0  0  0  0  0  0  0  0  0  0
   40.2960   15.6580   37.5680 C   0  0  0  0  0  0  0  0  0  0  0  0
   39.9260   16.9840   37.7580 C   0  0  0  0  0  0  0  0  0  0  0  0
   39.2610   17.6790   36.7630 C   0  0  0  0  0  0  0  0  0  0  0  0
   38.9720   17.0450   35.5690 C   0  0  0  0  0  0  0  0  0  0  0  0
   36.6280   14.6500   34.8420 C   0  0  0  0  0  0  0  0  0  0  0  0
   35.3650   14.8050   34.1070 N   0  0  0  0  0  0  0  0  0  0  0  0
   34.8720   16.0660   33.7970 C   0  0  0  0  0  0  0  0  0  0  0  0
   35.6220   17.1480   34.0400 N   0  0  0  0  0  0  0  0  0  0  0  0
   35.1970   18.3720   33.7700 C   0  0  0  0  0  0  0  0  0  0  0  0
   34.0070   18.6010   33.2320 N   0  0  0  0  0  0  0  0  0  0  0  0
   33.1830   17.5940   32.9410 C   0  0  0  0  0  0  0  0  0  0  0  0
   33.5860   16.2600   33.2170 C   0  0  0  0  0  0  0  0  0  0  0  0
   32.6870   15.1920   32.8960 C   0  0  0  0  0  0  0  0  0  0  0  0
   31.9860   14.3280   32.6550 N   0  0  0  0  0  0  0  0  0  0  0  0
   31.9500   17.8790   32.3930 N   0  0  0  0  0  0  0  0  0  0  0  0
   36.6440   13.3120   35.5790 C   0  0  0  0  0  0  0  0  0  0  0  0
   41.5328   14.5673   30.6120 H   0  0  0  0  0  0  0  0  0  0  0  0
   39.8814   13.4322   28.8029 H   0  0  0  0  0  0  0  0  0  0  0  0
   37.5039   13.1617   29.9230 H   0  0  0  0  0  0  0  0  0  0  0  0
   40.3001   13.9655   36.2225 H   0  0  0  0  0  0  0  0  0  0  0  0
   40.8226   15.1168   38.3679 H   0  0  0  0  0  0  0  0  0  0  0  0
   40.1638   17.4856   38.7077 H   0  0  0  0  0  0  0  0  0  0  0  0
   38.9650   18.7266   36.9208 H   0  0  0  0  0  0  0  0  0  0  0  0
   38.4544   17.5940   34.7686 H   0  0  0  0  0  0  0  0  0  0  0  0
   36.7334   15.4717   35.5656 H   0  0  0  0  0  0  0  0  0  0  0  0
   34.8387   13.9681   33.8181 H   0  0  0  0  0  0  0  0  0  0  0  0
   35.8515   19.2259   33.9991 H   0  0  0  0  0  0  0  0  0  0  0  0
   31.1442   18.0653   33.0069 H   0  0  0  0  0  0  0  0  0  0  0  0
   31.8349   17.9056   31.3698 H   0  0  0  0  0  0  0  0  0  0  0  0
   36.6419   13.4912   36.6643 H   0  0  0  0  0  0  0  0  0  0  0  0
   35.7528   12.7300   35.3017 H   0  0  0  0  0  0  0  0  0  0  0  0
   37.5489   12.7514   35.3017 H   0  0  0  0  0  0  0  0  0  0  0  0
  8  9  2  0
  8  7  1  0
  9  1  1  0
  7  6  2  0
  1  6  1  0
  1  2  1  0
  6  5  1  0
 27 23  1  0
 26 25  3  0
  2  3  2  0
 25 24  1  0
 23 24  1  0
 23 22  2  0
  5 10  2  0
  5  4  1  0
 24 19  2  0
 22 21  1  0
 21 20  2  0
 19 20  1  0
 19 18  1  0
  3  4  1  0
  3 17  1  0
 18 17  1  0
  4 11  1  0
 17 28  1  0
 11 16  1  0
 11 12  2  0
 16 15  2  0
 12 13  1  0
 15 14  1  0
 13 14  2  0
  7 29  1  0
  8 30  1  0
  9 31  1  0
 12 32  1  0
 13 33  1  0
 14 34  1  0
 15 35  1  0
 16 36  1  0
 17 37  1  0
 18 38  1  0
 21 39  1  0
 27 40  1  0
 27 41  1  0
 28 42  1  0
 28 43  1  0
 28 44  1  0
A    1
N1
A    2
N2
A    3
C3
A    4
N4
A    5
C5
A    6
C6
A    7
C7
A    8
C8
A    9
C9
A   10
O10
A   11
C11
A   12
C12
A   13
C13
A   14
C14
A   15
C15
A   16
C16
A   17
C17
A   18
N19
A   19
C20
A   20
N21
A   21
C22
A   22
N23
A   23
C24
A   24
C25
A   25
C26
A   26
N27
A   27
N28
A   28
C29
M  END
