2VVN_NHT_A_1718
     RDKit          3D

 32 33  0  0  0  0  0  0  0  0999 V2000
    6.3930  -12.1410    4.2100 C   0  0  0  0  0  0  0  0  0  0  0  0
    7.8120  -11.7890    3.8030 C   0  0  0  0  0  0  0  0  0  0  0  0
    7.6180  -10.6840    2.7300 C   0  0  0  0  0  0  0  0  0  0  0  0
    6.5650  -11.0700    1.6530 C   0  0  0  0  0  0  0  0  0  0  0  0
    5.2230  -11.2940    2.3350 C   0  0  0  0  0  0  0  0  0  0  0  0
    4.0720  -11.7090    1.4120 C   0  0  0  0  0  0  0  0  0  0  0  0
    7.5900  -10.6140    5.9080 C   0  0  0  0  0  0  0  0  0  0  0  0
    7.7110   -9.0540    9.2650 C   0  0  0  0  0  0  0  0  0  0  0  0
    8.3810  -11.0590    4.9600 N   0  0  0  0  0  0  0  0  0  0  0  0
    8.8330  -10.2560    2.0900 O   0  0  0  0  0  0  0  0  0  0  0  0
    6.3580  -10.0280    0.6770 O   0  0  0  0  0  0  0  0  0  0  0  0
    5.4240  -12.3820    3.2010 O   0  0  0  0  0  0  0  0  0  0  0  0
    7.9820   -9.9040    6.9460 N   0  0  0  0  0  0  0  0  0  0  0  0
    4.4510  -12.8820    0.6970 O   0  0  0  0  0  0  0  0  0  0  0  0
    5.9220  -11.1740    5.6440 S   0  0  0  0  0  0  0  0  0  0  0  0
    7.0340   -9.5160    7.9880 C   0  0  0  0  0  0  0  0  0  0  0  0
    6.4111  -13.1952    4.5237 H   0  0  0  0  0  0  0  0  0  0  0  0
    8.4130  -12.6536    3.4848 H   0  0  0  0  0  0  0  0  0  0  0  0
    7.2399   -9.8274    3.3072 H   0  0  0  0  0  0  0  0  0  0  0  0
    6.9451  -11.9692    1.1460 H   0  0  0  0  0  0  0  0  0  0  0  0
    4.9318  -10.3390    2.7966 H   0  0  0  0  0  0  0  0  0  0  0  0
    3.8578  -10.8970    0.7015 H   0  0  0  0  0  0  0  0  0  0  0  0
    3.1712  -11.9126    2.0095 H   0  0  0  0  0  0  0  0  0  0  0  0
    7.1537   -9.4343   10.1338 H   0  0  0  0  0  0  0  0  0  0  0  0
    8.7413   -9.4382    9.2935 H   0  0  0  0  0  0  0  0  0  0  0  0
    7.7288   -7.9545    9.2935 H   0  0  0  0  0  0  0  0  0  0  0  0
    9.5034  -10.0198    2.7791 H   0  0  0  0  0  0  0  0  0  0  0  0
    6.1876   -9.1703    1.1411 H   0  0  0  0  0  0  0  0  0  0  0  0
    8.9687   -9.6189    7.0241 H   0  0  0  0  0  0  0  0  0  0  0  0
    4.6827  -13.5993    1.3388 H   0  0  0  0  0  0  0  0  0  0  0  0
    6.4098   -8.6949    7.6056 H   0  0  0  0  0  0  0  0  0  0  0  0
    6.4365  -10.4056    8.2363 H   0  0  0  0  0  0  0  0  0  0  0  0
 14  6  1  0
  6  5  1  0
  5 12  1  0
  5  4  1  0
 12  1  1  0
  4 11  1  0
  4  3  1  0
  3 10  1  0
  3  2  1  0
  2  9  1  0
  2  1  1  0
  9  7  2  0
  1 15  1  0
 15  7  1  0
  7 13  1  0
 13 16  1  0
 16  8  1  0
  1 17  1  0
  2 18  1  0
  3 19  1  0
  4 20  1  0
  5 21  1  0
  6 22  1  0
  6 23  1  0
  8 24  1  0
  8 25  1  0
  8 26  1  0
 10 27  1  0
 11 28  1  0
 13 29  1  0
 14 30  1  0
 16 31  1  0
 16 32  1  0
A    1
C1
A    2
C2
A    3
C3
A    4
C4
A    5
C5
A    6
C6
A    7
C7
A    8
C10
A    9
N2
A   10
O3
A   11
O4
A   12
O5
A   13
N1
A   14
O6
A   15
S1
A   16
C9
M  END
