5MAR_7KE_A_403
     RDKit          3D

 27 28  0  0  0  0  0  0  0  0999 V2000
    4.9540  -35.6850    0.1680 C   0  0  0  0  0  0  0  0  0  0  0  0
    6.1120  -36.4570    0.7900 C   0  0  0  0  0  0  0  0  0  0  0  0
    6.1570  -36.1580    2.2850 C   0  0  0  0  0  0  0  0  0  0  0  0
    7.2570  -36.9830    2.9410 C   0  0  0  0  0  0  0  0  0  0  0  0
   12.8430  -37.2950    6.0030 C   0  0  0  0  0  0  0  0  0  0  0  0
   12.2660  -38.5330    5.7730 C   0  0  0  0  0  0  0  0  0  0  0  0
   10.9840  -36.2250    4.9300 C   0  0  0  0  0  0  0  0  0  0  0  0
   10.4090  -37.4610    4.7000 C   0  0  0  0  0  0  0  0  0  0  0  0
   11.0490  -38.6170    5.1200 C   0  0  0  0  0  0  0  0  0  0  0  0
   12.2010  -36.1410    5.5830 C   0  0  0  0  0  0  0  0  0  0  0  0
    9.0720  -37.5470    3.9780 C   0  0  0  0  0  0  0  0  0  0  0  0
    8.4070  -38.6580    3.6850 N   0  0  0  0  0  0  0  0  0  0  0  0
    8.3570  -36.4950    3.5140 N   0  0  0  0  0  0  0  0  0  0  0  0
    7.2930  -38.2970    3.0500 O   0  0  0  0  0  0  0  0  0  0  0  0
    4.9530  -35.8990   -1.2130 O   0  0  0  0  0  0  0  0  0  0  0  0
   14.4120  -37.1820    6.8450 Cl  0  0  0  0  0  0  0  0  0  0  0  0
    5.0737  -34.6112    0.3745 H   0  0  0  0  0  0  0  0  0  0  0  0
    4.0029  -36.0320    0.5981 H   0  0  0  0  0  0  0  0  0  0  0  0
    5.9635  -37.5356    0.6332 H   0  0  0  0  0  0  0  0  0  0  0  0
    7.0588  -36.1527    0.3198 H   0  0  0  0  0  0  0  0  0  0  0  0
    6.3619  -35.0881    2.4379 H   0  0  0  0  0  0  0  0  0  0  0  0
    5.1884  -36.4171    2.7375 H   0  0  0  0  0  0  0  0  0  0  0  0
   12.7748  -39.4485    6.1091 H   0  0  0  0  0  0  0  0  0  0  0  0
   10.4747  -35.3096    4.5943 H   0  0  0  0  0  0  0  0  0  0  0  0
   10.5900  -39.5993    4.9344 H   0  0  0  0  0  0  0  0  0  0  0  0
   12.6589  -35.1582    5.7687 H   0  0  0  0  0  0  0  0  0  0  0  0
    4.9485  -36.8719   -1.3962 H   0  0  0  0  0  0  0  0  0  0  0  0
 15  1  1  0
  1  2  1  0
  2  3  1  0
  3  4  1  0
  4 14  1  0
  4 13  2  0
 14 12  1  0
 13 11  1  0
 12 11  2  0
 11  8  1  0
  8  7  2  0
  8  9  1  0
  7 10  1  0
  9  6  2  0
 10  5  2  0
  6  5  1  0
  5 16  1  0
  1 17  1  0
  1 18  1  0
  2 19  1  0
  2 20  1  0
  3 21  1  0
  3 22  1  0
  6 23  1  0
  7 24  1  0
  9 25  1  0
 10 26  1  0
 15 27  1  0
A    1
C15
A    2
C14
A    3
C13
A    4
C11
A    5
C06
A    6
C05
A    7
C02
A    8
C03
A    9
C04
A   10
C01
A   11
C08
A   12
N09
A   13
N12
A   14
O10
A   15
O16
A   16
CL7
M  END
