1AFK_PAP_A_125
     RDKit          3D

 47 49  0  0  0  0  0  0  0  0999 V2000
   37.0960   -2.6270   23.1460 P   0  0  0  0  0  0  0  0  0  0  0  0
   35.6450   -2.8540   22.9910 O   0  0  0  0  0  0  0  0  0  0  0  0
   37.4700   -1.7080   24.2740 O   0  0  0  0  0  0  0  0  0  0  0  0
   37.7900   -2.3100   21.8760 O   0  0  0  0  0  0  0  0  0  0  0  0
   38.8980   -5.1970   23.0660 P   0  0  0  0  0  0  0  0  0  0  0  0
   39.1010   -6.1020   24.2360 O   0  0  0  0  0  0  0  0  0  0  0  0
   40.0900   -4.5480   22.4560 O   0  0  0  0  0  0  0  0  0  0  0  0
   37.7130   -4.0790   23.6160 O   0  0  0  0  0  0  0  0  0  0  0  0
   38.1350   -6.0710   21.9240 O   0  0  0  0  0  0  0  0  0  0  0  0
   37.6540   -5.4600   20.7430 C   0  0  0  0  0  0  0  0  0  0  0  0
   37.4550   -6.5780   19.7620 C   0  0  0  0  0  0  0  0  0  0  0  0
   36.8070   -5.9900   18.6290 O   0  0  0  0  0  0  0  0  0  0  0  0
   38.7890   -7.1850   19.2480 C   0  0  0  0  0  0  0  0  0  0  0  0
   38.6030   -8.6050   18.9820 O   0  0  0  0  0  0  0  0  0  0  0  0
   39.2670   -9.7840   20.0240 P   0  0  0  0  0  0  0  0  0  0  0  0
   38.0320  -10.3450   20.6260 O   0  0  0  0  0  0  0  0  0  0  0  0
   39.9760  -10.6860   19.0810 O   0  0  0  0  0  0  0  0  0  0  0  0
   40.1960   -9.0560   20.9410 O   0  0  0  0  0  0  0  0  0  0  0  0
   38.9870   -6.4000   17.9570 C   0  0  0  0  0  0  0  0  0  0  0  0
   39.8810   -7.0970   17.0610 O   0  0  0  0  0  0  0  0  0  0  0  0
   37.5180   -6.4600   17.4940 C   0  0  0  0  0  0  0  0  0  0  0  0
   37.1230   -5.5360   16.4070 N   0  0  0  0  0  0  0  0  0  0  0  0
   36.2620   -5.9000   15.4020 C   0  0  0  0  0  0  0  0  0  0  0  0
   36.0380   -4.9630   14.5290 N   0  0  0  0  0  0  0  0  0  0  0  0
   36.8190   -3.8500   14.9770 C   0  0  0  0  0  0  0  0  0  0  0  0
   36.9920   -2.4990   14.4510 C   0  0  0  0  0  0  0  0  0  0  0  0
   36.4470   -2.1010   13.2850 N   0  0  0  0  0  0  0  0  0  0  0  0
   37.7970   -1.6570   15.1510 N   0  0  0  0  0  0  0  0  0  0  0  0
   38.3900   -2.1300   16.2570 C   0  0  0  0  0  0  0  0  0  0  0  0
   38.3300   -3.3480   16.8480 N   0  0  0  0  0  0  0  0  0  0  0  0
   37.4970   -4.1920   16.1420 C   0  0  0  0  0  0  0  0  0  0  0  0
   37.2880   -2.1553   25.1382 H   0  0  0  0  0  0  0  0  0  0  0  0
   38.6723   -1.9070   22.0738 H   0  0  0  0  0  0  0  0  0  0  0  0
   40.6904   -4.2211   23.1721 H   0  0  0  0  0  0  0  0  0  0  0  0
   36.7013   -4.9457   20.9374 H   0  0  0  0  0  0  0  0  0  0  0  0
   38.3558   -4.7038   20.3613 H   0  0  0  0  0  0  0  0  0  0  0  0
   36.8886   -7.3820   20.2546 H   0  0  0  0  0  0  0  0  0  0  0  0
   39.6397   -7.1166   19.9420 H   0  0  0  0  0  0  0  0  0  0  0  0
   40.4998  -11.3524   19.5925 H   0  0  0  0  0  0  0  0  0  0  0  0
   39.9504   -9.2485   21.8805 H   0  0  0  0  0  0  0  0  0  0  0  0
   39.4357   -5.3982   18.0278 H   0  0  0  0  0  0  0  0  0  0  0  0
   40.5416   -7.6121   17.5886 H   0  0  0  0  0  0  0  0  0  0  0  0
   37.3285   -7.4769   17.1199 H   0  0  0  0  0  0  0  0  0  0  0  0
   35.8018   -6.8972   15.3406 H   0  0  0  0  0  0  0  0  0  0  0  0
   35.6152   -1.4936   13.2861 H   0  0  0  0  0  0  0  0  0  0  0  0
   36.8621   -2.4042   12.3924 H   0  0  0  0  0  0  0  0  0  0  0  0
   39.0361   -1.4046   16.7731 H   0  0  0  0  0  0  0  0  0  0  0  0
  1  2  2  0
  1  3  1  0
  1  4  1  0
  1  8  1  0
  5  6  2  0
  5  7  1  0
  5  8  1  0
  5  9  1  0
  9 10  1  0
 10 11  1  0
 11 12  1  0
 11 13  1  0
 12 21  1  0
 13 14  1  0
 13 19  1  0
 14 15  1  0
 15 16  2  0
 15 17  1  0
 15 18  1  0
 19 20  1  0
 19 21  1  0
 21 22  1  0
 22 23  1  0
 22 31  1  0
 23 24  2  0
 24 25  1  0
 25 26  1  0
 25 31  2  0
 26 27  1  0
 26 28  2  0
 28 29  1  0
 29 30  2  0
 30 31  1  0
  3 32  1  0
  4 33  1  0
  7 34  1  0
 10 35  1  0
 10 36  1  0
 11 37  1  0
 13 38  1  0
 17 39  1  0
 18 40  1  0
 19 41  1  0
 20 42  1  0
 21 43  1  0
 23 44  1  0
 27 45  1  0
 27 46  1  0
 29 47  1  0
A    1
PB
A    2
O1B
A    3
O2B
A    4
O3B
A    5
PA
A    6
O1A
A    7
O2A
A    8
O3A
A    9
O5'
A   10
C5'
A   11
C4'
A   12
O4'
A   13
C3'
A   14
O3'
A   15
P
A   16
O1
A   17
O2
A   18
O3
A   19
C2'
A   20
O2'
A   21
C1'
A   22
N9
A   23
C8
A   24
N7
A   25
C5
A   26
C6
A   27
N6
A   28
N1
A   29
C2
A   30
N3
A   31
C4
M  END
