5MF6_7M2_A_410
     RDKit          3D

 32 35  0  0  0  0  0  0  0  0999 V2000
  116.8690   22.8820  -24.3280 N   0  0  0  0  0  0  0  0  0  0  0  0
  116.6650   24.1250  -23.9850 C   0  0  0  0  0  0  0  0  0  0  0  0
  116.2700   21.9310  -23.5820 C   0  0  0  0  0  0  0  0  0  0  0  0
  115.3940   22.2320  -22.5560 C   0  0  0  0  0  0  0  0  0  0  0  0
  115.1890   23.5540  -22.2320 C   0  0  0  0  0  0  0  0  0  0  0  0
  115.8340   24.5390  -22.9720 C   0  0  0  0  0  0  0  0  0  0  0  0
  115.7470   26.0310  -22.6800 C   0  0  0  0  0  0  0  0  0  0  0  0
  114.8610   26.6890  -23.6380 N   0  0  0  0  0  0  0  0  0  0  0  0
  115.2700   26.3550  -21.2770 C   0  0  0  0  0  0  0  0  0  0  0  0
  114.5890   28.0320  -23.4530 C   0  0  0  0  0  0  0  0  0  0  0  0
  114.4940   28.5400  -22.1450 C   0  0  0  0  0  0  0  0  0  0  0  0
  114.7090   27.6220  -21.0780 N   0  0  0  0  0  0  0  0  0  0  0  0
  114.2450   29.9090  -21.9340 C   0  0  0  0  0  0  0  0  0  0  0  0
  114.4040   27.7500  -19.7250 C   0  0  0  0  0  0  0  0  0  0  0  0
  114.7830   26.5990  -19.0840 C   0  0  0  0  0  0  0  0  0  0  0  0
  115.3920   25.7540  -20.0470 C   0  0  0  0  0  0  0  0  0  0  0  0
  114.0660   30.7470  -23.0270 C   0  0  0  0  0  0  0  0  0  0  0  0
  114.1520   30.2350  -24.3400 C   0  0  0  0  0  0  0  0  0  0  0  0
  114.4080   28.8820  -24.5480 C   0  0  0  0  0  0  0  0  0  0  0  0
  117.2002   24.9016  -24.5512 H   0  0  0  0  0  0  0  0  0  0  0  0
  116.4872   20.8746  -23.7987 H   0  0  0  0  0  0  0  0  0  0  0  0
  114.8719   21.4323  -22.0102 H   0  0  0  0  0  0  0  0  0  0  0  0
  114.5243   23.8275  -21.3994 H   0  0  0  0  0  0  0  0  0  0  0  0
  116.7764   26.4076  -22.7725 H   0  0  0  0  0  0  0  0  0  0  0  0
  114.4517   26.1683  -24.4268 H   0  0  0  0  0  0  0  0  0  0  0  0
  114.1926   30.3120  -20.9118 H   0  0  0  0  0  0  0  0  0  0  0  0
  113.9379   28.6264  -19.2510 H   0  0  0  0  0  0  0  0  0  0  0  0
  114.6408   26.3720  -18.0171 H   0  0  0  0  0  0  0  0  0  0  0  0
  115.8768   24.7875  -19.8448 H   0  0  0  0  0  0  0  0  0  0  0  0
  113.8561   31.8152  -22.8689 H   0  0  0  0  0  0  0  0  0  0  0  0
  114.0165   30.9064  -25.2007 H   0  0  0  0  0  0  0  0  0  0  0  0
  114.4676   28.4831  -25.5714 H   0  0  0  0  0  0  0  0  0  0  0  0
 19 18  2  0
 19 10  1  0
 18 17  1  0
  1  2  2  0
  1  3  1  0
  2  6  1  0
  8 10  1  0
  8  7  1  0
  3  4  2  0
 10 11  2  0
 17 13  2  0
  6  7  1  0
  6  5  2  0
  7  9  1  0
  4  5  1  0
 11 13  1  0
 11 12  1  0
  9 12  1  0
  9 16  2  0
 12 14  1  0
 16 15  1  0
 14 15  2  0
  2 20  1  0
  3 21  1  0
  4 22  1  0
  5 23  1  0
  7 24  1  0
  8 25  1  0
 13 26  1  0
 14 27  1  0
 15 28  1  0
 16 29  1  0
 17 30  1  0
 18 31  1  0
 19 32  1  0
A    1
N18
A    2
C19
A    3
C17
A    4
C16
A    5
C15
A    6
C14
A    7
C02
A    8
N01
A    9
C03
A   10
C13
A   11
C08
A   12
N07
A   13
C09
A   14
C06
A   15
C05
A   16
C04
A   17
C10
A   18
C11
A   19
C12
M  END
