5MFR_7MK_A_1002
     RDKit          3D

 30 31  0  0  0  0  0  0  0  0999 V2000
  -66.0720   16.0670   -6.6630 C   0  0  0  0  0  0  0  0  0  0  0  0
  -65.5540   19.2360   -9.6890 C   0  0  0  0  0  0  0  0  0  0  0  0
  -64.5130   19.8330   -8.7400 C   0  0  0  0  0  0  0  0  0  0  0  0
  -67.5880   15.2530   -8.3220 C   0  0  0  0  0  0  0  0  0  0  0  0
  -66.8030   15.0270   -7.2140 C   0  0  0  0  0  0  0  0  0  0  0  0
  -66.1060   17.3390   -7.2230 C   0  0  0  0  0  0  0  0  0  0  0  0
  -66.8980   17.5660   -8.3450 C   0  0  0  0  0  0  0  0  0  0  0  0
  -67.6450   16.5200   -8.8750 C   0  0  0  0  0  0  0  0  0  0  0  0
  -65.2980   18.4670   -6.6250 C   0  0  0  0  0  0  0  0  0  0  0  0
  -66.8910   18.9190   -9.0120 C   0  0  0  0  0  0  0  0  0  0  0  0
  -64.1350   18.9670   -7.4680 C   0  0  0  0  0  0  0  0  0  0  0  0
  -63.2610   20.1560   -9.4790 N   0  0  0  0  0  0  0  0  0  0  0  0
  -63.2510   19.7400   -6.6940 O   0  0  0  0  0  0  0  0  0  0  0  0
  -63.3050   17.9500   -7.9270 O   0  0  0  0  0  0  0  0  0  0  0  0
  -65.4562   15.8837   -5.7701 H   0  0  0  0  0  0  0  0  0  0  0  0
  -65.1475   18.3043  -10.1093 H   0  0  0  0  0  0  0  0  0  0  0  0
  -65.7555   19.9913  -10.4629 H   0  0  0  0  0  0  0  0  0  0  0  0
  -65.0111   20.7321   -8.3481 H   0  0  0  0  0  0  0  0  0  0  0  0
  -68.1674   14.4300   -8.7658 H   0  0  0  0  0  0  0  0  0  0  0  0
  -66.7562   14.0230   -6.7671 H   0  0  0  0  0  0  0  0  0  0  0  0
  -68.2907   16.7024   -9.7467 H   0  0  0  0  0  0  0  0  0  0  0  0
  -64.8928   18.1191   -5.6633 H   0  0  0  0  0  0  0  0  0  0  0  0
  -65.9907   19.3170   -6.5372 H   0  0  0  0  0  0  0  0  0  0  0  0
  -67.0915   19.6877   -8.2512 H   0  0  0  0  0  0  0  0  0  0  0  0
  -67.6654   18.9090   -9.7931 H   0  0  0  0  0  0  0  0  0  0  0  0
  -62.5058   20.3508   -8.8063 H   0  0  0  0  0  0  0  0  0  0  0  0
  -62.9956   19.3559  -10.0709 H   0  0  0  0  0  0  0  0  0  0  0  0
  -63.4157   20.9846  -10.0709 H   0  0  0  0  0  0  0  0  0  0  0  0
  -63.4303   19.5832   -5.7331 H   0  0  0  0  0  0  0  0  0  0  0  0
  -62.9133   17.4700   -7.1548 H   0  0  0  0  0  0  0  0  0  0  0  0
  2 10  1  0
  2  3  1  0
 12  3  1  0
 10  7  1  0
  8  7  2  0
  8  4  1  0
  3 11  1  0
  7  6  1  0
  4  5  2  0
 14 11  1  0
 11 13  1  0
 11  9  1  0
  6  1  2  0
  6  9  1  0
  5  1  1  0
  1 15  1  0
  2 16  1  0
  2 17  1  0
  3 18  1  0
  4 19  1  0
  5 20  1  0
  8 21  1  0
  9 22  1  0
  9 23  1  0
 10 24  1  0
 10 25  1  0
 12 26  1  0
 12 27  1  0
 12 28  1  0
 13 29  1  0
 14 30  1  0
M  CHG  1  12   1
A    1
C1
A    2
C10
A    3
C11
A    4
C2
A    5
C3
A    6
C4
A    7
C5
A    8
C6
A    9
C7
A   10
C8
A   11
C9
A   12
N1
A   13
O1
A   14
O2
M  END
