5MFS_7ML_A_1002
     RDKit          3D

 40 42  0  0  0  0  0  0  0  0999 V2000
  -65.6710   16.8700   -4.0060 C   0  0  0  0  0  0  0  0  0  0  0  0
  -66.1820   17.3720   -7.0340 C   0  0  0  0  0  0  0  0  0  0  0  0
  -66.9270   17.5240   -8.2070 C   0  0  0  0  0  0  0  0  0  0  0  0
  -67.6360   16.4360   -8.7080 C   0  0  0  0  0  0  0  0  0  0  0  0
  -65.3370   18.5760   -6.5650 C   0  0  0  0  0  0  0  0  0  0  0  0
  -66.9540   18.8610   -8.9100 C   0  0  0  0  0  0  0  0  0  0  0  0
  -64.1630   18.9530   -7.4440 C   0  0  0  0  0  0  0  0  0  0  0  0
  -65.6300   19.1450   -9.6280 C   0  0  0  0  0  0  0  0  0  0  0  0
  -64.5610   19.7580   -8.7190 C   0  0  0  0  0  0  0  0  0  0  0  0
  -64.9860   16.7330   -2.8140 C   0  0  0  0  0  0  0  0  0  0  0  0
  -64.0940   15.6990   -2.6370 C   0  0  0  0  0  0  0  0  0  0  0  0
  -63.9090   14.7830   -3.6370 C   0  0  0  0  0  0  0  0  0  0  0  0
  -64.5830   14.9190   -4.8390 C   0  0  0  0  0  0  0  0  0  0  0  0
  -65.4590   15.9800   -5.0510 C   0  0  0  0  0  0  0  0  0  0  0  0
  -66.1720   16.1460   -6.3510 C   0  0  0  0  0  0  0  0  0  0  0  0
  -67.6050   15.2120   -8.0580 C   0  0  0  0  0  0  0  0  0  0  0  0
  -66.8960   15.0680   -6.8740 C   0  0  0  0  0  0  0  0  0  0  0  0
  -63.3360   20.0410   -9.5700 N   0  0  0  0  0  0  0  0  0  0  0  0
  -63.2690   19.7500   -6.6910 O   0  0  0  0  0  0  0  0  0  0  0  0
  -63.4620   17.8370   -7.9200 O   0  0  0  0  0  0  0  0  0  0  0  0
  -66.3915   17.6921   -4.1286 H   0  0  0  0  0  0  0  0  0  0  0  0
  -68.2269   16.5486   -9.6290 H   0  0  0  0  0  0  0  0  0  0  0  0
  -64.9450   18.3412   -5.5644 H   0  0  0  0  0  0  0  0  0  0  0  0
  -66.0160   19.4409   -6.5945 H   0  0  0  0  0  0  0  0  0  0  0  0
  -67.1345   19.6519   -8.1671 H   0  0  0  0  0  0  0  0  0  0  0  0
  -67.7566   18.8394   -9.6619 H   0  0  0  0  0  0  0  0  0  0  0  0
  -65.2425   18.1978  -10.0313 H   0  0  0  0  0  0  0  0  0  0  0  0
  -65.8421   19.8796  -10.4188 H   0  0  0  0  0  0  0  0  0  0  0  0
  -65.0147   20.6680   -8.2995 H   0  0  0  0  0  0  0  0  0  0  0  0
  -65.1543   17.4546   -2.0010 H   0  0  0  0  0  0  0  0  0  0  0  0
  -63.5323   15.6095   -1.6955 H   0  0  0  0  0  0  0  0  0  0  0  0
  -63.2231   13.9365   -3.4855 H   0  0  0  0  0  0  0  0  0  0  0  0
  -64.4241   14.1788   -5.6370 H   0  0  0  0  0  0  0  0  0  0  0  0
  -68.1442   14.3522   -8.4822 H   0  0  0  0  0  0  0  0  0  0  0  0
  -66.9028   14.1038   -6.3447 H   0  0  0  0  0  0  0  0  0  0  0  0
  -62.5286   20.2275   -8.9583 H   0  0  0  0  0  0  0  0  0  0  0  0
  -63.1349   19.2243  -10.1645 H   0  0  0  0  0  0  0  0  0  0  0  0
  -63.5135   20.8631  -10.1645 H   0  0  0  0  0  0  0  0  0  0  0  0
  -63.4313   19.6053   -5.7252 H   0  0  0  0  0  0  0  0  0  0  0  0
  -63.1283   17.3057   -7.1542 H   0  0  0  0  0  0  0  0  0  0  0  0
  8  6  1  0
  8  9  1  0
 18  9  1  0
  6  3  1  0
  9  7  1  0
  4  3  2  0
  4 16  1  0
  3  2  1  0
 16 17  2  0
 20  7  1  0
  7 19  1  0
  7  5  1  0
  2  5  1  0
  2 15  2  0
 17 15  1  0
 15 14  1  0
 14 13  1  0
 14  1  2  0
 13 12  2  0
  1 10  1  0
 12 11  1  0
 10 11  2  0
  1 21  1  0
  4 22  1  0
  5 23  1  0
  5 24  1  0
  6 25  1  0
  6 26  1  0
  8 27  1  0
  8 28  1  0
  9 29  1  0
 10 30  1  0
 11 31  1  0
 12 32  1  0
 13 33  1  0
 16 34  1  0
 17 35  1  0
 18 36  1  0
 18 37  1  0
 18 38  1  0
 19 39  1  0
 20 40  1  0
M  CHG  1  18   1
A    1
C1
A    2
C10
A    3
C11
A    4
C12
A    5
C13
A    6
C14
A    7
C15
A    8
C16
A    9
C17
A   10
C2
A   11
C3
A   12
C4
A   13
C5
A   14
C6
A   15
C7
A   16
C8
A   17
C9
A   18
N1
A   19
O1
A   20
O2
M  END
