5MFZ_7M9_A_406
     RDKit          3D

 38 42  0  0  0  0  0  0  0  0999 V2000
  118.8540   29.0780  -23.0010 N   0  0  0  0  0  0  0  0  0  0  0  0
  118.0870   27.8540  -23.0810 C   0  0  0  0  0  0  0  0  0  0  0  0
  117.8120   27.6250  -24.4180 C   0  0  0  0  0  0  0  0  0  0  0  0
  118.3470   28.6960  -25.1860 C   0  0  0  0  0  0  0  0  0  0  0  0
  118.9560   29.5920  -24.3010 C   0  0  0  0  0  0  0  0  0  0  0  0
  119.2320   29.6930  -21.7650 C   0  0  0  0  0  0  0  0  0  0  0  0
  119.8960   30.9310  -21.6990 C   0  0  0  0  0  0  0  0  0  0  0  0
  120.1880   31.5180  -20.4680 C   0  0  0  0  0  0  0  0  0  0  0  0
  119.7530   30.9310  -19.2950 C   0  0  0  0  0  0  0  0  0  0  0  0
  119.0400   29.7300  -19.3320 C   0  0  0  0  0  0  0  0  0  0  0  0
  118.7550   29.1010  -20.5670 C   0  0  0  0  0  0  0  0  0  0  0  0
  118.0610   27.8920  -20.6310 N   0  0  0  0  0  0  0  0  0  0  0  0
  116.7120   26.0980  -21.7810 C   0  0  0  0  0  0  0  0  0  0  0  0
  115.5570   24.0090  -22.4890 C   0  0  0  0  0  0  0  0  0  0  0  0
  115.6780   26.2840  -20.8440 C   0  0  0  0  0  0  0  0  0  0  0  0
  117.8500   27.0150  -21.8230 C   0  0  0  0  0  0  0  0  0  0  0  0
  115.6080   27.3150  -19.9570 O   0  0  0  0  0  0  0  0  0  0  0  0
  116.4920   22.5780  -24.2010 C   0  0  0  0  0  0  0  0  0  0  0  0
  117.5500   23.4280  -24.3520 C   0  0  0  0  0  0  0  0  0  0  0  0
  117.6390   24.5720  -23.6020 C   0  0  0  0  0  0  0  0  0  0  0  0
  115.5070   22.8450  -23.2940 C   0  0  0  0  0  0  0  0  0  0  0  0
  116.6520   24.9180  -22.6290 C   0  0  0  0  0  0  0  0  0  0  0  0
  114.5670   24.2700  -21.5240 C   0  0  0  0  0  0  0  0  0  0  0  0
  114.6230   25.3770  -20.7350 C   0  0  0  0  0  0  0  0  0  0  0  0
  117.2689   26.7572  -24.8205 H   0  0  0  0  0  0  0  0  0  0  0  0
  118.2918   28.8009  -26.2796 H   0  0  0  0  0  0  0  0  0  0  0  0
  119.4353   30.5422  -24.5792 H   0  0  0  0  0  0  0  0  0  0  0  0
  120.1882   31.4419  -22.6283 H   0  0  0  0  0  0  0  0  0  0  0  0
  120.7672   32.4524  -20.4306 H   0  0  0  0  0  0  0  0  0  0  0  0
  119.9688   31.4109  -18.3290 H   0  0  0  0  0  0  0  0  0  0  0  0
  118.6975   29.2697  -18.3935 H   0  0  0  0  0  0  0  0  0  0  0  0
  115.6204   27.1326  -18.9840 H   0  0  0  0  0  0  0  0  0  0  0  0
  116.4327   21.6684  -24.8167 H   0  0  0  0  0  0  0  0  0  0  0  0
  118.3382   23.1925  -25.0823 H   0  0  0  0  0  0  0  0  0  0  0  0
  118.4965   25.2440  -23.7540 H   0  0  0  0  0  0  0  0  0  0  0  0
  114.6636   22.1469  -23.1872 H   0  0  0  0  0  0  0  0  0  0  0  0
  113.7310   23.5650  -21.4051 H   0  0  0  0  0  0  0  0  0  0  0  0
  113.8249   25.5598  -20.0004 H   0  0  0  0  0  0  0  0  0  0  0  0
  4  3  1  0
  4  5  2  0
  3  2  2  0
 19 18  2  0
 19 20  1  0
  5  1  1  0
 18 21  1  0
 20 22  2  0
 21 14  2  0
  2  1  1  0
  2 16  1  0
  1  6  1  0
 22 14  1  0
 22 13  1  0
 14 23  1  0
 16 13  1  0
 16 12  2  0
 13 15  2  0
  6  7  2  0
  6 11  1  0
  7  8  1  0
 23 24  2  0
 15 24  1  0
 15 17  1  0
 12 11  1  0
 11 10  2  0
  8  9  2  0
 10  9  1  0
  3 25  1  0
  4 26  1  0
  5 27  1  0
  7 28  1  0
  8 29  1  0
  9 30  1  0
 10 31  1  0
 17 32  1  0
 18 33  1  0
 19 34  1  0
 20 35  1  0
 21 36  1  0
 23 37  1  0
 24 38  1  0
A    1
N01
A    2
C02
A    3
C03
A    4
C04
A    5
C05
A    6
C06
A    7
C07
A    8
C08
A    9
C09
A   10
C10
A   11
C11
A   12
N12
A   13
C13
A   14
C14
A   15
C15
A   16
C16
A   17
O17
A   18
C18
A   19
C19
A   20
C20
A   21
C21
A   22
C22
A   23
C23
A   24
C24
M  END
