5MGM_7MZ_A_1901
     RDKit          3D

 26 27  0  0  0  0  0  0  0  0999 V2000
 -102.3690   45.8900   29.1340 C   0  0  0  0  0  0  0  0  0  0  0  0
 -103.3590   45.6180   28.1650 C   0  0  0  0  0  0  0  0  0  0  0  0
 -103.4320   43.4120   28.9230 C   0  0  0  0  0  0  0  0  0  0  0  0
 -101.9440   44.8460   29.9790 C   0  0  0  0  0  0  0  0  0  0  0  0
 -108.5530   44.7240   29.2320 C   0  0  0  0  0  0  0  0  0  0  0  0
 -108.7840   43.4100   28.5130 C   0  0  0  0  0  0  0  0  0  0  0  0
 -109.9160   43.1020   28.1910 O   0  0  0  0  0  0  0  0  0  0  0  0
 -107.6220   42.4810   28.1930 C   0  0  0  0  0  0  0  0  0  0  0  0
 -106.3390   42.7440   28.6810 C   0  0  0  0  0  0  0  0  0  0  0  0
 -105.2770   41.8900   28.3730 C   0  0  0  0  0  0  0  0  0  0  0  0
 -105.5130   40.7620   27.5950 C   0  0  0  0  0  0  0  0  0  0  0  0
 -106.7880   40.4920   27.1110 C   0  0  0  0  0  0  0  0  0  0  0  0
 -107.8410   41.3500   27.4090 C   0  0  0  0  0  0  0  0  0  0  0  0
 -103.9530   42.0910   28.8430 O   0  0  0  0  0  0  0  0  0  0  0  0
 -103.8530   44.3670   28.0970 N   0  0  0  0  0  0  0  0  0  0  0  0
 -102.4950   43.6250   29.8420 N   0  0  0  0  0  0  0  0  0  0  0  0
 -101.9378   46.8976   29.2274 H   0  0  0  0  0  0  0  0  0  0  0  0
 -103.7166   46.4053   27.4851 H   0  0  0  0  0  0  0  0  0  0  0  0
 -101.1716   45.0260   30.7413 H   0  0  0  0  0  0  0  0  0  0  0  0
 -108.5823   44.5573   30.3189 H   0  0  0  0  0  0  0  0  0  0  0  0
 -107.5699   45.1287   28.9495 H   0  0  0  0  0  0  0  0  0  0  0  0
 -109.3391   45.4397   28.9495 H   0  0  0  0  0  0  0  0  0  0  0  0
 -106.1643   43.6285   29.3112 H   0  0  0  0  0  0  0  0  0  0  0  0
 -104.6842   40.0778   27.3606 H   0  0  0  0  0  0  0  0  0  0  0  0
 -106.9639   39.5997   26.4923 H   0  0  0  0  0  0  0  0  0  0  0  0
 -108.8492   41.1354   27.0249 H   0  0  0  0  0  0  0  0  0  0  0  0
 12 13  1  0
 12 11  2  0
 13  8  2  0
 11 10  1  0
 15  2  1  0
 15  3  2  0
  2  1  2  0
  7  6  2  0
  8  6  1  0
  8  9  1  0
 10  9  2  0
 10 14  1  0
  6  5  1  0
 14  3  1  0
  3 16  1  0
  1  4  1  0
 16  4  2  0
  1 17  1  0
  2 18  1  0
  4 19  1  0
  5 20  1  0
  5 21  1  0
  5 22  1  0
  9 23  1  0
 11 24  1  0
 12 25  1  0
 13 26  1  0
A    1
C14
A    2
C13
A    3
C11
A    4
C15
A    5
C01
A    6
C02
A    7
O03
A    8
C04
A    9
C05
A   10
C06
A   11
C07
A   12
C08
A   13
C09
A   14
O10
A   15
N12
A   16
N16
M  END
