5MHP_7NB_A_920
     RDKit          3D

 75 80  0  0  0  0  0  0  0  0999 V2000
   96.9960    5.9520   34.7140 C   0  0  0  0  0  0  0  0  0  0  0  0
   95.9630    5.0920   35.4190 C   0  0  0  0  0  0  0  0  0  0  0  0
   95.4360    5.7130   36.6010 O   0  0  0  0  0  0  0  0  0  0  0  0
   97.0660    4.0960   35.7170 C   0  0  0  0  0  0  0  0  0  0  0  0
   98.0620    4.9840   35.0710 N   0  0  0  0  0  0  0  0  0  0  0  0
   99.3900    4.9250   34.8890 C   0  0  0  0  0  0  0  0  0  0  0  0
  100.0920    3.9950   35.2840 O   0  0  0  0  0  0  0  0  0  0  0  0
  100.0100    6.1080   34.1420 C   0  0  0  0  0  0  0  0  0  0  0  0
  100.6130    5.6430   32.8830 N   0  0  0  0  0  0  0  0  0  0  0  0
  101.4920    6.6810   32.3360 C   0  0  0  0  0  0  0  0  0  0  0  0
  102.3390    6.0720   31.2340 C   0  0  0  0  0  0  0  0  0  0  0  0
   99.5770    5.3850   31.8730 C   0  0  0  0  0  0  0  0  0  0  0  0
  100.1690    4.8250   30.5870 C   0  0  0  0  0  0  0  0  0  0  0  0
  101.4960    5.3850   30.2260 N   0  0  0  0  0  0  0  0  0  0  0  0
  101.9960    5.1560   28.9990 C   0  0  0  0  0  0  0  0  0  0  0  0
  101.3200    4.3650   28.0750 C   0  0  0  0  0  0  0  0  0  0  0  0
  101.9110    4.1760   26.8220 N   0  0  0  0  0  0  0  0  0  0  0  0
  103.2170    5.7030   28.6110 C   0  0  0  0  0  0  0  0  0  0  0  0
  103.7370    5.4650   27.3410 C   0  0  0  0  0  0  0  0  0  0  0  0
  104.9580    6.0280   26.9870 C   0  0  0  0  0  0  0  0  0  0  0  0
  103.0780    4.7070   26.4670 C   0  0  0  0  0  0  0  0  0  0  0  0
  103.3530    4.3350   25.2180 N   0  0  0  0  0  0  0  0  0  0  0  0
  102.3430    3.5720   24.8130 C   0  0  0  0  0  0  0  0  0  0  0  0
  102.2550    2.9280   23.4300 C   0  0  0  0  0  0  0  0  0  0  0  0
  101.4640    3.8410   22.4910 C   0  0  0  0  0  0  0  0  0  0  0  0
  101.4520    3.4670   25.7930 C   0  0  0  0  0  0  0  0  0  0  0  0
  100.2970    2.8050   25.8170 N   0  0  0  0  0  0  0  0  0  0  0  0
   99.0410    3.5590   25.6830 C   0  0  0  0  0  0  0  0  0  0  0  0
  100.2640    1.4850   25.9840 C   0  0  0  0  0  0  0  0  0  0  0  0
   99.1580    0.7380   26.0230 N   0  0  0  0  0  0  0  0  0  0  0  0
  101.6170    0.4550   26.1820 S   0  0  0  0  0  0  0  0  0  0  0  0
  100.6430   -0.9460   26.3130 C   0  0  0  0  0  0  0  0  0  0  0  0
  101.1420   -2.2740   26.5080 C   0  0  0  0  0  0  0  0  0  0  0  0
  101.5380   -3.3310   26.6630 N   0  0  0  0  0  0  0  0  0  0  0  0
   99.3640   -0.5760   26.2010 C   0  0  0  0  0  0  0  0  0  0  0  0
   98.3380   -1.4250   26.2580 C   0  0  0  0  0  0  0  0  0  0  0  0
   97.1670   -1.0370   26.9010 C   0  0  0  0  0  0  0  0  0  0  0  0
   96.0850   -1.9060   26.9700 C   0  0  0  0  0  0  0  0  0  0  0  0
   96.1680   -3.1690   26.3950 C   0  0  0  0  0  0  0  0  0  0  0  0
   95.1080   -4.0200   26.4630 F   0  0  0  0  0  0  0  0  0  0  0  0
   97.3360   -3.5590   25.7520 C   0  0  0  0  0  0  0  0  0  0  0  0
   98.4190   -2.6890   25.6820 C   0  0  0  0  0  0  0  0  0  0  0  0
   97.1286    6.9484   35.1607 H   0  0  0  0  0  0  0  0  0  0  0  0
   96.8463    6.2477   33.6651 H   0  0  0  0  0  0  0  0  0  0  0  0
   95.0309    4.7857   34.9216 H   0  0  0  0  0  0  0  0  0  0  0  0
   95.8122    5.2698   37.4023 H   0  0  0  0  0  0  0  0  0  0  0  0
   96.9398    3.1257   35.2143 H   0  0  0  0  0  0  0  0  0  0  0  0
   97.2272    3.7426   36.7461 H   0  0  0  0  0  0  0  0  0  0  0  0
  100.7863    6.5697   34.7698 H   0  0  0  0  0  0  0  0  0  0  0  0
   99.2262    6.8465   33.9178 H   0  0  0  0  0  0  0  0  0  0  0  0
  102.1443    7.0703   33.1316 H   0  0  0  0  0  0  0  0  0  0  0  0
  100.8888    7.5071   31.9312 H   0  0  0  0  0  0  0  0  0  0  0  0
  103.0339    5.3434   31.6770 H   0  0  0  0  0  0  0  0  0  0  0  0
  102.8914    6.8805   30.7328 H   0  0  0  0  0  0  0  0  0  0  0  0
   99.0588    6.3282   31.6454 H   0  0  0  0  0  0  0  0  0  0  0  0
   98.8790    4.6394   32.2815 H   0  0  0  0  0  0  0  0  0  0  0  0
   99.4702    5.0395   29.7650 H   0  0  0  0  0  0  0  0  0  0  0  0
  100.3184    3.7481   30.7539 H   0  0  0  0  0  0  0  0  0  0  0  0
  100.3525    3.9036   28.3222 H   0  0  0  0  0  0  0  0  0  0  0  0
  103.7784    6.3318   29.3177 H   0  0  0  0  0  0  0  0  0  0  0  0
  105.5198    6.2870   27.8966 H   0  0  0  0  0  0  0  0  0  0  0  0
  105.5362    5.3056   26.3922 H   0  0  0  0  0  0  0  0  0  0  0  0
  104.7840    6.9368   26.3922 H   0  0  0  0  0  0  0  0  0  0  0  0
  101.7468    1.9557   23.5101 H   0  0  0  0  0  0  0  0  0  0  0  0
  103.2688    2.7803   23.0294 H   0  0  0  0  0  0  0  0  0  0  0  0
  100.8577    4.5408   23.0848 H   0  0  0  0  0  0  0  0  0  0  0  0
  102.1616    4.4074   21.8566 H   0  0  0  0  0  0  0  0  0  0  0  0
  100.8040    3.2312   21.8566 H   0  0  0  0  0  0  0  0  0  0  0  0
   98.6469    3.7956   26.6824 H   0  0  0  0  0  0  0  0  0  0  0  0
   99.2307    4.4927   25.1332 H   0  0  0  0  0  0  0  0  0  0  0  0
   98.3062    2.9526   25.1332 H   0  0  0  0  0  0  0  0  0  0  0  0
   97.0974   -0.0382   27.3566 H   0  0  0  0  0  0  0  0  0  0  0  0
   95.1617   -1.5943   27.4802 H   0  0  0  0  0  0  0  0  0  0  0  0
   97.4046   -4.5582   25.2971 H   0  0  0  0  0  0  0  0  0  0  0  0
   99.3414   -3.0009   25.1702 H   0  0  0  0  0  0  0  0  0  0  0  0
 25 24  1  0
 24 23  1  0
 23 22  1  0
 23 26  2  0
 22 21  2  0
 42 41  2  0
 42 36  1  0
 28 27  1  0
 26 27  1  0
 26 17  1  0
 41 39  1  0
 27 29  1  0
 29 30  2  0
 29 31  1  0
 30 35  1  0
 31 32  1  0
 35 36  1  0
 35 32  2  0
 36 37  2  0
 32 33  1  0
 39 40  1  0
 39 38  2  0
 21 17  1  0
 21 19  1  0
 33 34  3  0
 17 16  1  0
 37 38  1  0
 20 19  1  0
 19 18  2  0
 16 15  2  0
 18 15  1  0
 15 14  1  0
 14 13  1  0
 14 11  1  0
 13 12  1  0
 11 10  1  0
 12  9  1  0
 10  9  1  0
  9  8  1  0
  8  6  1  0
  1  5  1  0
  1  2  1  0
  6  5  1  0
  6  7  2  0
  5  4  1  0
  2  4  1  0
  2  3  1  0
  1 43  1  0
  1 44  1  0
  2 45  1  0
  3 46  1  0
  4 47  1  0
  4 48  1  0
  8 49  1  0
  8 50  1  0
 10 51  1  0
 10 52  1  0
 11 53  1  0
 11 54  1  0
 12 55  1  0
 12 56  1  0
 13 57  1  0
 13 58  1  0
 16 59  1  0
 18 60  1  0
 20 61  1  0
 20 62  1  0
 20 63  1  0
 24 64  1  0
 24 65  1  0
 25 66  1  0
 25 67  1  0
 25 68  1  0
 28 69  1  0
 28 70  1  0
 28 71  1  0
 37 72  1  0
 38 73  1  0
 41 74  1  0
 42 75  1  0
A    1
CAA
A    2
CAB
A    3
OAE
A    4
CAC
A    5
NAD
A    6
C
A    7
O
A    8
CA
A    9
N
A   10
CAN
A   11
CAM
A   12
CAJ
A   13
CAK
A   14
NAL
A   15
CAO
A   16
CAT
A   17
NAS
A   18
CAP
A   19
CAQ
A   20
CAX
A   21
CAR
A   22
NAU
A   23
CAV
A   24
CAY
A   25
CAZ
A   26
CAW
A   27
NBA
A   28
CBB
A   29
CBC
A   30
NBG
A   31
SBD
A   32
CBE
A   33
CBI
A   34
N1
A   35
CBF
A   36
CBH
A   37
CBJ
A   38
CBK
A   39
CBL
A   40
FBO
A   41
CBM
A   42
CBN
M  END
