5MHQ_8QT_A_301
     RDKit          3D

 54 56  0  0  0  0  0  0  0  0999 V2000
   12.5360   -9.0230    9.6460 C   0  0  0  0  0  0  0  0  0  0  0  0
   15.0800   -9.8300   13.1610 C   0  0  0  0  0  0  0  0  0  0  0  0
   10.9480  -10.4120   10.6550 C   0  0  0  0  0  0  0  0  0  0  0  0
    8.6510  -10.5710    9.7850 C   0  0  0  0  0  0  0  0  0  0  0  0
    8.0080  -11.2210    7.4450 C   0  0  0  0  0  0  0  0  0  0  0  0
    8.4090  -11.5960    8.7050 C   0  0  0  0  0  0  0  0  0  0  0  0
    8.5870  -12.9350    8.9390 C   0  0  0  0  0  0  0  0  0  0  0  0
    8.3720  -13.8420    7.9350 C   0  0  0  0  0  0  0  0  0  0  0  0
    7.9850  -13.3850    6.7210 C   0  0  0  0  0  0  0  0  0  0  0  0
   11.8520  -10.6270   11.6980 C   0  0  0  0  0  0  0  0  0  0  0  0
   12.8980  -11.1080   13.4640 C   0  0  0  0  0  0  0  0  0  0  0  0
   12.7990   -8.1870    8.6280 N   0  0  0  0  0  0  0  0  0  0  0  0
   11.3180   -9.6170    9.6360 N   0  0  0  0  0  0  0  0  0  0  0  0
   14.1210   -7.5990    8.4150 C   0  0  0  0  0  0  0  0  0  0  0  0
    9.7370  -10.9760   10.6640 N   0  0  0  0  0  0  0  0  0  0  0  0
   14.1580   -8.6300    6.1020 C   0  0  0  0  0  0  0  0  0  0  0  0
   14.3460   -7.3820    6.9210 C   0  0  0  0  0  0  0  0  0  0  0  0
    7.7910  -12.0850    6.4460 N   0  0  0  0  0  0  0  0  0  0  0  0
   11.7550  -11.3650   12.8790 N   0  0  0  0  0  0  0  0  0  0  0  0
   13.7570  -10.3220   12.7440 N   0  0  0  0  0  0  0  0  0  0  0  0
   14.9800   -8.3650   13.5000 C   0  0  0  0  0  0  0  0  0  0  0  0
   16.1380  -10.1160   12.1030 C   0  0  0  0  0  0  0  0  0  0  0  0
   13.0590   -9.9570   11.6120 C   0  0  0  0  0  0  0  0  0  0  0  0
   13.4740   -9.1570   10.6110 N   0  0  0  0  0  0  0  0  0  0  0  0
   14.3240   -6.3180    9.2520 C   0  0  0  0  0  0  0  0  0  0  0  0
   15.7150   -5.7510    9.0990 C   0  0  0  0  0  0  0  0  0  0  0  0
   13.4380   -5.2650    8.8820 O   0  0  0  0  0  0  0  0  0  0  0  0
   15.4044  -10.3693   14.0632 H   0  0  0  0  0  0  0  0  0  0  0  0
    8.9091   -9.6101    9.3158 H   0  0  0  0  0  0  0  0  0  0  0  0
    7.7345  -10.4768   10.3860 H   0  0  0  0  0  0  0  0  0  0  0  0
    7.8568  -10.1497    7.2462 H   0  0  0  0  0  0  0  0  0  0  0  0
    8.9028  -13.2816    9.9341 H   0  0  0  0  0  0  0  0  0  0  0  0
    8.5109  -14.9188    8.1116 H   0  0  0  0  0  0  0  0  0  0  0  0
    7.8207  -14.1175    5.9170 H   0  0  0  0  0  0  0  0  0  0  0  0
   13.1498  -11.4958   14.4621 H   0  0  0  0  0  0  0  0  0  0  0  0
   12.0405   -7.9511    7.9723 H   0  0  0  0  0  0  0  0  0  0  0  0
   14.8896   -8.2999    8.7727 H   0  0  0  0  0  0  0  0  0  0  0  0
    9.5624  -11.7410   11.3312 H   0  0  0  0  0  0  0  0  0  0  0  0
   14.0281   -9.4924    6.7724 H   0  0  0  0  0  0  0  0  0  0  0  0
   13.2661   -8.5212    5.4674 H   0  0  0  0  0  0  0  0  0  0  0  0
   15.0424   -8.7888    5.4674 H   0  0  0  0  0  0  0  0  0  0  0  0
   15.3735   -7.0185    6.7721 H   0  0  0  0  0  0  0  0  0  0  0  0
   13.5946   -6.6539    6.5814 H   0  0  0  0  0  0  0  0  0  0  0  0
   14.9716   -8.2413   14.5930 H   0  0  0  0  0  0  0  0  0  0  0  0
   15.8438   -7.8310   13.0772 H   0  0  0  0  0  0  0  0  0  0  0  0
   14.0517   -7.9533   13.0772 H   0  0  0  0  0  0  0  0  0  0  0  0
   17.0880  -10.3728   12.5945 H   0  0  0  0  0  0  0  0  0  0  0  0
   15.8106  -10.9579   11.4753 H   0  0  0  0  0  0  0  0  0  0  0  0
   16.2794   -9.2238   11.4753 H   0  0  0  0  0  0  0  0  0  0  0  0
   14.1318   -6.6435   10.2850 H   0  0  0  0  0  0  0  0  0  0  0  0
   16.1501   -5.5736   10.0936 H   0  0  0  0  0  0  0  0  0  0  0  0
   16.3432   -6.4648    8.5460 H   0  0  0  0  0  0  0  0  0  0  0  0
   15.6651   -4.8014    8.5460 H   0  0  0  0  0  0  0  0  0  0  0  0
   13.0768   -4.8357    9.6977 H   0  0  0  0  0  0  0  0  0  0  0  0
 16 17  1  0
 18  9  1  0
 18  5  2  0
  9  8  2  0
 17 14  1  0
  5  6  1  0
  8  7  1  0
 14 12  1  0
 14 25  1  0
 12  1  1  0
  6  7  2  0
  6  4  1  0
 27 25  1  0
 26 25  1  0
 13  1  2  0
 13  3  1  0
  1 24  1  0
  4 15  1  0
 24 23  2  0
  3 15  1  0
  3 10  2  0
 23 10  1  0
 23 20  1  0
 10 19  1  0
 22  2  1  0
 20  2  1  0
 20 11  1  0
 19 11  2  0
  2 21  1  0
  2 28  1  0
  4 29  1  0
  4 30  1  0
  5 31  1  0
  7 32  1  0
  8 33  1  0
  9 34  1  0
 11 35  1  0
 12 36  1  0
 14 37  1  0
 15 38  1  0
 16 39  1  0
 16 40  1  0
 16 41  1  0
 17 42  1  0
 17 43  1  0
 21 44  1  0
 21 45  1  0
 21 46  1  0
 22 47  1  0
 22 48  1  0
 22 49  1  0
 25 50  1  0
 26 51  1  0
 26 52  1  0
 26 53  1  0
 27 54  1  0
A    1
C4
A    2
C14
A    3
C5
A    4
C6
A    5
C11
A    6
C7
A    7
C8
A    8
C9
A    9
C10
A   10
C12
A   11
C13
A   12
N1
A   13
N2
A   14
C3
A   15
N3
A   16
C1
A   17
C2
A   18
N4
A   19
N5
A   20
N6
A   21
C15
A   22
C16
A   23
C17
A   24
N7
A   25
C18
A   26
C19
A   27
O1
M  END
