5MIM_1N_A_609
     RDKit          3D

 80 83  0  0  0  0  0  0  0  0999 V2000
   58.6160  -31.7850   -6.8990 N   0  0  0  0  0  0  0  0  0  0  0  0
   59.4790  -32.3110   -7.7790 C   0  0  0  0  0  0  0  0  0  0  0  0
   60.5610  -32.9620   -7.3300 N   0  0  0  0  0  0  0  0  0  0  0  0
   59.2600  -32.1930   -9.1050 N   0  0  0  0  0  0  0  0  0  0  0  0
   58.1040  -31.5080   -9.7150 C   0  0  0  0  0  0  0  0  0  0  0  0
   58.3650  -30.0070   -9.8260 C   0  0  0  0  0  0  0  0  0  0  0  0
   57.1410  -29.3350  -10.4660 C   0  0  0  0  0  0  0  0  0  0  0  0
   58.6030  -29.4750   -8.4950 O   0  0  0  0  0  0  0  0  0  0  0  0
   59.5550  -28.4950   -8.4260 C   0  0  0  0  0  0  0  0  0  0  0  0
   59.8430  -27.6980   -9.5260 C   0  0  0  0  0  0  0  0  0  0  0  0
   60.8110  -26.7070   -9.4420 C   0  0  0  0  0  0  0  0  0  0  0  0
   61.5020  -26.4870   -8.2550 C   0  0  0  0  0  0  0  0  0  0  0  0
   61.2220  -27.2870   -7.1520 C   0  0  0  0  0  0  0  0  0  0  0  0
   60.2530  -28.2860   -7.2380 C   0  0  0  0  0  0  0  0  0  0  0  0
   62.4410  -25.5390   -8.1660 N   0  0  0  0  0  0  0  0  0  0  0  0
   62.3840  -24.2780   -8.6460 C   0  0  0  0  0  0  0  0  0  0  0  0
   63.4320  -23.4640   -8.4670 N   0  0  0  0  0  0  0  0  0  0  0  0
   61.2980  -23.8100   -9.2820 N   0  0  0  0  0  0  0  0  0  0  0  0
   57.8390  -32.0800  -11.1090 C   0  0  0  0  0  0  0  0  0  0  0  0
   56.5990  -31.4160  -11.6950 C   0  0  0  0  0  0  0  0  0  0  0  0
   56.2720  -31.9910  -13.0130 N   0  0  0  0  0  0  0  0  0  0  0  0
   55.0370  -31.9480  -13.5310 C   0  0  0  0  0  0  0  0  0  0  0  0
   53.9260  -31.9520  -12.6910 C   0  0  0  0  0  0  0  0  0  0  0  0
   52.6460  -31.9010  -13.2350 C   0  0  0  0  0  0  0  0  0  0  0  0
   52.4700  -31.8440  -14.6170 C   0  0  0  0  0  0  0  0  0  0  0  0
   53.5800  -31.8430  -15.4600 C   0  0  0  0  0  0  0  0  0  0  0  0
   54.8590  -31.8890  -14.9130 C   0  0  0  0  0  0  0  0  0  0  0  0
   51.2320  -31.8060  -15.1210 N   0  0  0  0  0  0  0  0  0  0  0  0
   50.3960  -32.8630  -15.0990 C   0  0  0  0  0  0  0  0  0  0  0  0
   49.1560  -32.7630  -15.5960 N   0  0  0  0  0  0  0  0  0  0  0  0
   50.8030  -34.0300  -14.5740 N   0  0  0  0  0  0  0  0  0  0  0  0
   56.8440  -29.9260  -11.8400 C   0  0  0  0  0  0  0  0  0  0  0  0
   55.6440  -29.3400  -12.3530 O   0  0  0  0  0  0  0  0  0  0  0  0
   55.7840  -28.5860  -13.4800 C   0  0  0  0  0  0  0  0  0  0  0  0
   54.7170  -28.5070  -14.3710 C   0  0  0  0  0  0  0  0  0  0  0  0
   54.8220  -27.7450  -15.5270 C   0  0  0  0  0  0  0  0  0  0  0  0
   56.9560  -27.8900  -13.7410 C   0  0  0  0  0  0  0  0  0  0  0  0
   57.0620  -27.1230  -14.8990 C   0  0  0  0  0  0  0  0  0  0  0  0
   55.9940  -27.0410  -15.7900 C   0  0  0  0  0  0  0  0  0  0  0  0
   56.1230  -26.3110  -16.9030 N   0  0  0  0  0  0  0  0  0  0  0  0
   55.3150  -25.3240  -17.3150 C   0  0  0  0  0  0  0  0  0  0  0  0
   55.5930  -24.6900  -18.4620 N   0  0  0  0  0  0  0  0  0  0  0  0
   54.2470  -24.9560  -16.5940 N   0  0  0  0  0  0  0  0  0  0  0  0
   58.7845  -31.8877   -5.8881 H   0  0  0  0  0  0  0  0  0  0  0  0
   57.7842  -31.2780   -7.2335 H   0  0  0  0  0  0  0  0  0  0  0  0
   61.2306  -33.3700   -7.9979 H   0  0  0  0  0  0  0  0  0  0  0  0
   59.9530  -32.6134   -9.7405 H   0  0  0  0  0  0  0  0  0  0  0  0
   57.2255  -31.6706   -9.0733 H   0  0  0  0  0  0  0  0  0  0  0  0
   59.2469  -29.8107  -10.4535 H   0  0  0  0  0  0  0  0  0  0  0  0
   56.2675  -29.4848   -9.8144 H   0  0  0  0  0  0  0  0  0  0  0  0
   57.3551  -28.2628  -10.5865 H   0  0  0  0  0  0  0  0  0  0  0  0
   59.3004  -27.8531  -10.4702 H   0  0  0  0  0  0  0  0  0  0  0  0
   61.0343  -26.0886  -10.3239 H   0  0  0  0  0  0  0  0  0  0  0  0
   61.7666  -27.1311   -6.2091 H   0  0  0  0  0  0  0  0  0  0  0  0
   60.0378  -28.9142   -6.3611 H   0  0  0  0  0  0  0  0  0  0  0  0
   63.3076  -25.8008   -7.6747 H   0  0  0  0  0  0  0  0  0  0  0  0
   64.2731  -23.8066   -7.9812 H   0  0  0  0  0  0  0  0  0  0  0  0
   60.4935  -23.4633   -8.7403 H   0  0  0  0  0  0  0  0  0  0  0  0
   61.2695  -23.7977  -10.3115 H   0  0  0  0  0  0  0  0  0  0  0  0
   58.7043  -31.8820  -11.7586 H   0  0  0  0  0  0  0  0  0  0  0  0
   57.6787  -33.1660  -11.0388 H   0  0  0  0  0  0  0  0  0  0  0  0
   55.7522  -31.5919  -11.0154 H   0  0  0  0  0  0  0  0  0  0  0  0
   57.0215  -32.4429  -13.5561 H   0  0  0  0  0  0  0  0  0  0  0  0
   54.0600  -31.9954  -11.6000 H   0  0  0  0  0  0  0  0  0  0  0  0
   51.7688  -31.9057  -12.5714 H   0  0  0  0  0  0  0  0  0  0  0  0
   53.4460  -31.8061  -16.5512 H   0  0  0  0  0  0  0  0  0  0  0  0
   55.7366  -31.8787  -15.5761 H   0  0  0  0  0  0  0  0  0  0  0  0
   50.9018  -30.9278  -15.5460 H   0  0  0  0  0  0  0  0  0  0  0  0
   48.5252  -33.5770  -15.5742 H   0  0  0  0  0  0  0  0  0  0  0  0
   50.8442  -34.1483  -13.5516 H   0  0  0  0  0  0  0  0  0  0  0  0
   51.0739  -34.8069  -15.1937 H   0  0  0  0  0  0  0  0  0  0  0  0
   57.6927  -29.7311  -12.5122 H   0  0  0  0  0  0  0  0  0  0  0  0
   53.7853  -29.0515  -14.1579 H   0  0  0  0  0  0  0  0  0  0  0  0
   53.9805  -27.6976  -16.2339 H   0  0  0  0  0  0  0  0  0  0  0  0
   57.7985  -27.9438  -13.0358 H   0  0  0  0  0  0  0  0  0  0  0  0
   57.9942  -26.5790  -15.1112 H   0  0  0  0  0  0  0  0  0  0  0  0
   56.9279  -26.5302  -17.5072 H   0  0  0  0  0  0  0  0  0  0  0  0
   56.0065  -23.7469  -18.4420 H   0  0  0  0  0  0  0  0  0  0  0  0
   55.3932  -25.1457  -19.3638 H   0  0  0  0  0  0  0  0  0  0  0  0
   53.6379  -24.1952  -16.9273 H   0  0  0  0  0  0  0  0  0  0  0  0
  3  2  2  3
  1  2  1  0
  2  4  1  0
 13 14  2  0
 13 12  1  0
 14  9  1  0
 17 16  2  3
 18 16  1  0
 16 15  1  0
 15 12  1  0
 12 11  2  0
  9  8  1  0
  9 10  2  0
  4  5  1  0
  8  6  1  0
  5  6  1  0
  5 19  1  0
 11 10  1  0
  6  7  1  0
 19 20  1  0
  7 32  1  0
 20 32  1  0
 20 21  1  0
 26 27  2  0
 26 25  1  0
 28 25  1  0
 28 29  1  0
 32 33  1  0
 27 22  1  0
 25 24  2  0
 30 29  2  3
 22 21  1  0
 22 23  2  0
 24 23  1  0
 33 34  1  0
 29 31  1  0
 34 37  1  0
 34 35  2  0
 37 38  2  0
 35 36  1  0
 38 39  1  0
 36 39  2  0
 39 40  1  0
 40 41  1  0
 43 41  2  3
 41 42  1  0
  1 44  1  0
  1 45  1  0
  3 46  1  0
  4 47  1  0
  5 48  1  0
  6 49  1  0
  7 50  1  0
  7 51  1  0
 10 52  1  0
 11 53  1  0
 13 54  1  0
 14 55  1  0
 15 56  1  0
 17 57  1  0
 18 58  1  0
 18 59  1  0
 19 60  1  0
 19 61  1  0
 20 62  1  0
 21 63  1  0
 23 64  1  0
 24 65  1  0
 26 66  1  0
 27 67  1  0
 28 68  1  0
 30 69  1  0
 31 70  1  0
 31 71  1  0
 32 72  1  0
 35 73  1  0
 36 74  1  0
 37 75  1  0
 38 76  1  0
 40 77  1  0
 42 78  1  0
 42 79  1  0
 43 80  1  0
A    1
N13
A    2
C28
A    3
N12
A    4
N11
A    5
C18
A    6
C10
A    7
C9
A    8
O2
A    9
C11
A   10
C17
A   11
C16
A   12
C14
A   13
C13
A   14
C12
A   15
N4
A   16
C15
A   17
N6
A   18
N5
A   19
C19
A   20
C20
A   21
N7
A   22
C21
A   23
C27
A   24
C26
A   25
C24
A   26
C23
A   27
C22
A   28
N8
A   29
C25
A   30
N10
A   31
N9
A   32
C8
A   33
O1
A   34
C5
A   35
C4
A   36
C3
A   37
C6
A   38
C7
A   39
C2
A   40
N3
A   41
C1
A   42
N2
A   43
N1
M  END
