5MK4_I5W_A_501
     RDKit          3D

 43 45  0  0  0  0  0  0  0  0999 V2000
   35.9370   -2.5740   -6.9750 C   0  0  0  0  0  0  0  0  0  0  0  0
   35.4210   -1.4110   -7.5150 C   0  0  0  0  0  0  0  0  0  0  0  0
   35.4110   -0.1190   -6.6810 C   0  0  0  0  0  0  0  0  0  0  0  0
   34.8700   -0.1910   -5.4150 C   0  0  0  0  0  0  0  0  0  0  0  0
   34.8120    0.9290   -4.5740 C   0  0  0  0  0  0  0  0  0  0  0  0
   34.2200    0.7610   -3.1730 C   0  0  0  0  0  0  0  0  0  0  0  0
   33.1450   -0.0970   -2.9740 C   0  0  0  0  0  0  0  0  0  0  0  0
   32.6200   -0.2900   -1.7100 C   0  0  0  0  0  0  0  0  0  0  0  0
   33.1800    0.3760   -0.6250 C   0  0  0  0  0  0  0  0  0  0  0  0
   34.2500    1.2210   -0.8000 C   0  0  0  0  0  0  0  0  0  0  0  0
   34.7790    1.4220   -2.0820 C   0  0  0  0  0  0  0  0  0  0  0  0
   35.3150    2.1320   -5.0080 C   0  0  0  0  0  0  0  0  0  0  0  0
   35.8630    2.2180   -6.2800 C   0  0  0  0  0  0  0  0  0  0  0  0
   34.2860   -0.3140   -9.3090 O   0  0  0  0  0  0  0  0  0  0  0  0
   34.8490   -1.4750   -8.7760 C   0  0  0  0  0  0  0  0  0  0  0  0
   34.8240   -2.6570   -9.4990 C   0  0  0  0  0  0  0  0  0  0  0  0
   35.3780   -3.8230   -8.9650 C   0  0  0  0  0  0  0  0  0  0  0  0
   35.9360   -3.7550   -7.6950 C   0  0  0  0  0  0  0  0  0  0  0  0
   36.5030   -4.9560   -6.9670 C   0  0  0  0  0  0  0  0  0  0  0  0
   35.8020   -6.0690   -7.0450 C   0  0  0  0  0  0  0  0  0  0  0  0
   36.1900   -7.3270   -6.2690 C   0  0  0  0  0  0  0  0  0  0  0  0
   36.9770   -7.2520   -5.2900 O   0  0  0  0  0  0  0  0  0  0  0  0
   35.6050   -8.3950   -6.5160 O   0  0  0  0  0  0  0  0  0  0  0  0
   35.9200    1.1020   -7.1100 C   0  0  0  0  0  0  0  0  0  0  0  0
   36.5570    1.2590   -8.4970 C   0  0  0  0  0  0  0  0  0  0  0  0
   36.3547   -2.5601   -5.9575 H   0  0  0  0  0  0  0  0  0  0  0  0
   34.4736   -1.1521   -5.0555 H   0  0  0  0  0  0  0  0  0  0  0  0
   32.7071   -0.6284   -3.8318 H   0  0  0  0  0  0  0  0  0  0  0  0
   31.7648   -0.9660   -1.5632 H   0  0  0  0  0  0  0  0  0  0  0  0
   32.7631    0.2253    0.3817 H   0  0  0  0  0  0  0  0  0  0  0  0
   34.6903    1.7386    0.0650 H   0  0  0  0  0  0  0  0  0  0  0  0
   35.6332    2.0999   -2.2262 H   0  0  0  0  0  0  0  0  0  0  0  0
   35.2836    3.0164   -4.3547 H   0  0  0  0  0  0  0  0  0  0  0  0
   36.2575    3.1807   -6.6371 H   0  0  0  0  0  0  0  0  0  0  0  0
   33.9436    0.3922   -8.7056 H   0  0  0  0  0  0  0  0  0  0  0  0
   34.3655   -2.6772  -10.4987 H   0  0  0  0  0  0  0  0  0  0  0  0
   35.3724   -4.7653   -9.5325 H   0  0  0  0  0  0  0  0  0  0  0  0
   37.4469   -4.9022   -6.4048 H   0  0  0  0  0  0  0  0  0  0  0  0
   34.9101   -6.0934   -7.6884 H   0  0  0  0  0  0  0  0  0  0  0  0
   36.6226   -7.2858   -4.3662 H   0  0  0  0  0  0  0  0  0  0  0  0
   37.6195    1.5209   -8.3850 H   0  0  0  0  0  0  0  0  0  0  0  0
   36.4690    0.3123   -9.0502 H   0  0  0  0  0  0  0  0  0  0  0  0
   36.0392    2.0564   -9.0502 H   0  0  0  0  0  0  0  0  0  0  0  0
  9 10  2  0
  9  8  1  0
 10 11  1  0
  8  7  2  0
 11  6  2  0
  7  6  1  0
  6  5  1  0
  5 12  1  0
  5  4  2  0
 12 13  2  0
 23 21  2  0
  4  3  1  0
 21 22  1  0
 21 20  1  0
 13 24  1  0
  3 24  2  0
  3  2  1  0
 19 20  2  0
 19 18  1  0
  1  2  2  0
  1 18  1  0
 24 25  1  0
  2 15  1  0
 18 17  2  0
 15 14  1  0
 15 16  2  0
 17 16  1  0
  1 26  1  0
  4 27  1  0
  7 28  1  0
  8 29  1  0
  9 30  1  0
 10 31  1  0
 11 32  1  0
 12 33  1  0
 13 34  1  0
 14 35  1  0
 16 36  1  0
 17 37  1  0
 19 38  1  0
 20 39  1  0
 22 40  1  0
 25 41  1  0
 25 42  1  0
 25 43  1  0
A    1
C11
A    2
C12
A    3
C13
A    4
C14
A    5
C15
A    6
C16
A    7
C17
A    8
C18
A    9
C19
A   10
C20
A   11
C21
A   12
C22
A   13
C23
A   14
O01
A   15
C02
A   16
C03
A   17
C04
A   18
C05
A   19
C06
A   20
C07
A   21
C08
A   22
O09
A   23
O10
A   24
C24
A   25
C25
M  END
