5MKY_I0D_A_201
     RDKit          3D

 38 40  0  0  0  0  0  0  0  0999 V2000
    4.9640   14.6640    8.2000 C   0  0  0  0  0  0  0  0  0  0  0  0
    5.0840   16.0540    8.1900 C   0  0  0  0  0  0  0  0  0  0  0  0
    2.7130   16.3030    8.4570 C   0  0  0  0  0  0  0  0  0  0  0  0
    0.5460   14.4030    9.8020 C   0  0  0  0  0  0  0  0  0  0  0  0
    7.0860   11.6650    7.4110 C   0  0  0  0  0  0  0  0  0  0  0  0
    5.8590   12.4790    7.5110 N   0  0  0  0  0  0  0  0  0  0  0  0
    4.8850   11.8480    8.4040 C   0  0  0  0  0  0  0  0  0  0  0  0
    3.5490   12.5730    8.3480 C   0  0  0  0  0  0  0  0  0  0  0  0
    3.7020   14.0800    8.3560 C   0  0  0  0  0  0  0  0  0  0  0  0
    6.1910   13.8100    8.0210 C   0  0  0  0  0  0  0  0  0  0  0  0
    3.9720   16.8660    8.3270 C   0  0  0  0  0  0  0  0  0  0  0  0
    2.5800   14.9150    8.4940 C   0  0  0  0  0  0  0  0  0  0  0  0
    1.2950   14.3360    8.6690 N   0  0  0  0  0  0  0  0  0  0  0  0
    1.1210   14.8830   11.0220 C   0  0  0  0  0  0  0  0  0  0  0  0
    0.4960   14.9700   12.1480 N   0  0  0  0  0  0  0  0  0  0  0  0
   -0.8060   14.5700   12.1940 N   0  0  0  0  0  0  0  0  0  0  0  0
   -1.4340   14.6740   13.5090 C   0  0  0  0  0  0  0  0  0  0  0  0
   -1.5310   14.0600   11.1470 C   0  0  0  0  0  0  0  0  0  0  0  0
   -2.6970   13.7290   11.2940 O   0  0  0  0  0  0  0  0  0  0  0  0
   -0.7810   13.9910    9.9100 C   0  0  0  0  0  0  0  0  0  0  0  0
   -1.6170   13.3900    8.5190 Cl  0  0  0  0  0  0  0  0  0  0  0  0
    6.0774   16.5112    8.0714 H   0  0  0  0  0  0  0  0  0  0  0  0
    1.8238   16.9464    8.5306 H   0  0  0  0  0  0  0  0  0  0  0  0
    7.4494   11.4239    8.4209 H   0  0  0  0  0  0  0  0  0  0  0  0
    6.8651   10.7338    6.8688 H   0  0  0  0  0  0  0  0  0  0  0  0
    7.8581   12.2306    6.8688 H   0  0  0  0  0  0  0  0  0  0  0  0
    4.7402   10.8016    8.0974 H   0  0  0  0  0  0  0  0  0  0  0  0
    5.2687   11.8967    9.4337 H   0  0  0  0  0  0  0  0  0  0  0  0
    3.0262   12.2771    7.4266 H   0  0  0  0  0  0  0  0  0  0  0  0
    2.9799   12.2916    9.2463 H   0  0  0  0  0  0  0  0  0  0  0  0
    6.6949   13.7031    8.9929 H   0  0  0  0  0  0  0  0  0  0  0  0
    6.8458   14.3030    7.2874 H   0  0  0  0  0  0  0  0  0  0  0  0
    4.0879   17.9599    8.3327 H   0  0  0  0  0  0  0  0  0  0  0  0
    0.8968   13.8219    7.8702 H   0  0  0  0  0  0  0  0  0  0  0  0
    2.1737   15.2013   10.9981 H   0  0  0  0  0  0  0  0  0  0  0  0
   -0.6707   14.5476   14.2909 H   0  0  0  0  0  0  0  0  0  0  0  0
   -1.9053   15.6624   13.6131 H   0  0  0  0  0  0  0  0  0  0  0  0
   -2.1988   13.8903   13.6131 H   0  0  0  0  0  0  0  0  0  0  0  0
  5  6  1  0
 10  6  1  0
 10  1  1  0
  6  7  1  0
  7  8  1  0
  1  2  2  0
  1  9  1  0
  2 11  1  0
  8  9  1  0
  9 12  2  0
 11  3  2  0
 12  3  1  0
 12 13  1  0
 14 15  2  0
 14  4  1  0
 15 16  1  0
 13  4  1  0
  4 20  2  0
 16 17  1  0
 16 18  1  0
 20 18  1  0
 20 21  1  0
 18 19  2  0
  2 22  1  0
  3 23  1  0
  5 24  1  0
  5 25  1  0
  5 26  1  0
  7 27  1  0
  7 28  1  0
  8 29  1  0
  8 30  1  0
 10 31  1  0
 10 32  1  0
 11 33  1  0
 13 34  1  0
 14 35  1  0
 17 36  1  0
 17 37  1  0
 17 38  1  0
A    1
C13
A    2
C17
A    3
C21
A    4
C26
A    5
C01
A    6
N05
A    7
C06
A    8
C09
A    9
C12
A   10
C14
A   11
C19
A   12
C23
A   13
N24
A   14
C27
A   15
N29
A   16
N30
A   17
C31
A   18
C35
A   19
O36
A   20
C37
A   21
CL3
M  END
