5ML3_DL3_B_201
     RDKit          3D

 82 86  0  0  0  0  0  0  0  0999 V2000
  -36.5010    0.0670   -2.5780 C   0  0  0  0  0  0  0  0  0  0  0  0
  -36.6670    0.2420   -1.2090 C   0  0  0  0  0  0  0  0  0  0  0  0
  -36.9780   -0.8610   -0.4130 C   0  0  0  0  0  0  0  0  0  0  0  0
  -37.0960   -2.1240   -0.9480 N   0  0  0  0  0  0  0  0  0  0  0  0
  -36.6170   -1.1910   -3.0380 N   0  0  0  0  0  0  0  0  0  0  0  0
  -37.4730   -4.6380   -2.0600 C   0  0  0  0  0  0  0  0  0  0  0  0
  -37.0150   -3.4620   -2.8210 N   0  0  0  0  0  0  0  0  0  0  0  0
  -36.9050   -2.2650   -2.2710 C   0  0  0  0  0  0  0  0  0  0  0  0
  -36.1810    1.1730   -3.4390 C   0  0  0  0  0  0  0  0  0  0  0  0
  -37.2770    2.2050   -3.5650 N   0  0  0  0  0  0  0  0  0  0  0  0
  -37.8970    2.5130   -4.8620 C   0  0  0  0  0  0  0  0  0  0  0  0
  -39.1610    1.7280   -5.2100 C   0  0  0  0  0  0  0  0  0  0  0  0
  -40.0110    2.5390   -6.1040 C   0  0  0  0  0  0  0  0  0  0  0  0
  -41.0360    1.6000   -6.6900 C   0  0  0  0  0  0  0  0  0  0  0  0
  -41.7450    0.8120   -5.6480 N   0  0  0  0  0  0  0  0  0  0  0  0
  -41.4680    1.2580   -4.2600 C   0  0  0  0  0  0  0  0  0  0  0  0
  -39.9800    1.4520   -3.9540 C   0  0  0  0  0  0  0  0  0  0  0  0
  -36.9300    3.8100   -2.9440 S   0  0  0  0  0  0  0  0  0  0  0  0
  -36.2210    3.5410   -1.6430 O   0  0  0  0  0  0  0  0  0  0  0  0
  -38.1940    4.5890   -2.9640 O   0  0  0  0  0  0  0  0  0  0  0  0
  -35.8150    4.6750   -4.0000 C   0  0  0  0  0  0  0  0  0  0  0  0
  -36.2470    5.6070   -4.9430 C   0  0  0  0  0  0  0  0  0  0  0  0
  -35.3140    6.2510   -5.7570 C   0  0  0  0  0  0  0  0  0  0  0  0
  -34.4750    4.4020   -3.8570 C   0  0  0  0  0  0  0  0  0  0  0  0
  -33.5390    5.0350   -4.6510 C   0  0  0  0  0  0  0  0  0  0  0  0
  -33.9580    5.9650   -5.6040 C   0  0  0  0  0  0  0  0  0  0  0  0
  -32.7500    6.7690   -6.5410 S   0  0  0  0  0  0  0  0  0  0  0  0
  -33.4940    7.4300   -7.6630 O   0  0  0  0  0  0  0  0  0  0  0  0
  -31.7000    5.7940   -6.9410 O   0  0  0  0  0  0  0  0  0  0  0  0
  -31.9280    7.9850   -5.6680 N   0  0  0  0  0  0  0  0  0  0  0  0
  -32.3460    8.8980   -4.5560 C   0  0  0  0  0  0  0  0  0  0  0  0
  -33.4720    8.5910   -3.6360 C   0  0  0  0  0  0  0  0  0  0  0  0
  -33.2230    9.8200   -2.7280 C   0  0  0  0  0  0  0  0  0  0  0  0
  -32.4200   10.8690   -3.5320 C   0  0  0  0  0  0  0  0  0  0  0  0
  -32.4180   10.3080   -4.9500 C   0  0  0  0  0  0  0  0  0  0  0  0
  -30.5330    7.6560   -5.2260 C   0  0  0  0  0  0  0  0  0  0  0  0
  -29.5890    8.1480   -6.1690 C   0  0  0  0  0  0  0  0  0  0  0  0
  -29.9530    8.6010   -7.4450 C   0  0  0  0  0  0  0  0  0  0  0  0
  -28.9970    9.0360   -8.3580 C   0  0  0  0  0  0  0  0  0  0  0  0
  -27.6680    9.0240   -7.9760 C   0  0  0  0  0  0  0  0  0  0  0  0
  -26.4640    9.5380   -9.0780 Cl  0  0  0  0  0  0  0  0  0  0  0  0
  -27.2940    8.5730   -6.7170 C   0  0  0  0  0  0  0  0  0  0  0  0
  -28.2550    8.1370   -5.8210 C   0  0  0  0  0  0  0  0  0  0  0  0
  -36.5544    1.2390   -0.7582 H   0  0  0  0  0  0  0  0  0  0  0  0
  -37.1324   -0.7181    0.6667 H   0  0  0  0  0  0  0  0  0  0  0  0
  -37.3926   -4.4316   -0.9825 H   0  0  0  0  0  0  0  0  0  0  0  0
  -38.5210   -4.8542   -2.3147 H   0  0  0  0  0  0  0  0  0  0  0  0
  -36.8472   -5.5060   -2.3147 H   0  0  0  0  0  0  0  0  0  0  0  0
  -36.7723   -3.5767   -3.8154 H   0  0  0  0  0  0  0  0  0  0  0  0
  -35.9652    0.7765   -4.4421 H   0  0  0  0  0  0  0  0  0  0  0  0
  -35.3196    1.6846   -2.9848 H   0  0  0  0  0  0  0  0  0  0  0  0
  -37.1516    2.3133   -5.6459 H   0  0  0  0  0  0  0  0  0  0  0  0
  -38.2132    3.5644   -4.7944 H   0  0  0  0  0  0  0  0  0  0  0  0
  -38.8555    0.7850   -5.6868 H   0  0  0  0  0  0  0  0  0  0  0  0
  -39.4029    2.9852   -6.9047 H   0  0  0  0  0  0  0  0  0  0  0  0
  -40.4932    3.3616   -5.5556 H   0  0  0  0  0  0  0  0  0  0  0  0
  -41.7758    2.1902   -7.2507 H   0  0  0  0  0  0  0  0  0  0  0  0
  -40.5062    0.8912   -7.3434 H   0  0  0  0  0  0  0  0  0  0  0  0
  -42.7581    0.8896   -5.8169 H   0  0  0  0  0  0  0  0  0  0  0  0
  -41.9829    2.2159   -4.0951 H   0  0  0  0  0  0  0  0  0  0  0  0
  -41.8296    0.4626   -3.5917 H   0  0  0  0  0  0  0  0  0  0  0  0
  -39.5957    0.5395   -3.4748 H   0  0  0  0  0  0  0  0  0  0  0  0
  -39.8842    2.3251   -3.2918 H   0  0  0  0  0  0  0  0  0  0  0  0
  -37.3186    5.8337   -5.0449 H   0  0  0  0  0  0  0  0  0  0  0  0
  -35.6457    6.9781   -6.5129 H   0  0  0  0  0  0  0  0  0  0  0  0
  -34.1453    3.6723   -3.1028 H   0  0  0  0  0  0  0  0  0  0  0  0
  -32.4692    4.8076   -4.5331 H   0  0  0  0  0  0  0  0  0  0  0  0
  -31.4838    8.6595   -3.9158 H   0  0  0  0  0  0  0  0  0  0  0  0
  -34.4532    8.6133   -4.1327 H   0  0  0  0  0  0  0  0  0  0  0  0
  -33.4978    7.5974   -3.1648 H   0  0  0  0  0  0  0  0  0  0  0  0
  -34.1853   10.2503   -2.4138 H   0  0  0  0  0  0  0  0  0  0  0  0
  -32.6595    9.5192   -1.8325 H   0  0  0  0  0  0  0  0  0  0  0  0
  -31.3947   10.9605   -3.1442 H   0  0  0  0  0  0  0  0  0  0  0  0
  -32.8540   11.8780   -3.4718 H   0  0  0  0  0  0  0  0  0  0  0  0
  -31.5436   10.6314   -5.5339 H   0  0  0  0  0  0  0  0  0  0  0  0
  -33.2483   10.6037   -5.6081 H   0  0  0  0  0  0  0  0  0  0  0  0
  -30.4268    6.5644   -5.1415 H   0  0  0  0  0  0  0  0  0  0  0  0
  -30.3451    8.1288   -4.2507 H   0  0  0  0  0  0  0  0  0  0  0  0
  -31.0153    8.6128   -7.7301 H   0  0  0  0  0  0  0  0  0  0  0  0
  -29.2916    9.3813   -9.3600 H   0  0  0  0  0  0  0  0  0  0  0  0
  -26.2319    8.5622   -6.4311 H   0  0  0  0  0  0  0  0  0  0  0  0
  -27.9525    7.7797   -4.8256 H   0  0  0  0  0  0  0  0  0  0  0  0
 41 40  1  0
 39 40  1  0
 39 38  2  0
 40 42  2  0
 28 27  2  0
 38 37  1  0
 29 27  2  0
 42 43  1  0
 14 13  1  0
 14 15  1  0
 27 30  1  0
 27 26  1  0
 37 43  2  0
 37 36  1  0
 13 12  1  0
 23 26  1  0
 23 22  2  0
 30 36  1  0
 30 31  1  0
 15 16  1  0
 26 25  2  0
 12 11  1  0
 12 17  1  0
 35 31  1  0
 35 34  1  0
 22 21  1  0
 11 10  1  0
 25 24  1  0
 31 32  1  0
 16 17  1  0
 21 24  2  0
 21 18  1  0
 32 33  1  0
 10  9  1  0
 10 18  1  0
 34 33  1  0
  9  1  1  0
  5  1  1  0
  5  8  2  0
 20 18  2  0
 18 19  2  0
  7  8  1  0
  7  6  1  0
  1  2  2  0
  8  4  1  0
  2  3  1  0
  4  3  2  0
  2 44  1  0
  3 45  1  0
  6 46  1  0
  6 47  1  0
  6 48  1  0
  7 49  1  0
  9 50  1  0
  9 51  1  0
 11 52  1  0
 11 53  1  0
 12 54  1  0
 13 55  1  0
 13 56  1  0
 14 57  1  0
 14 58  1  0
 15 59  1  0
 16 60  1  0
 16 61  1  0
 17 62  1  0
 17 63  1  0
 22 64  1  0
 23 65  1  0
 24 66  1  0
 25 67  1  0
 31 68  1  0
 32 69  1  0
 32 70  1  0
 33 71  1  0
 33 72  1  0
 34 73  1  0
 34 74  1  0
 35 75  1  0
 35 76  1  0
 36 77  1  0
 36 78  1  0
 38 79  1  0
 39 80  1  0
 42 81  1  0
 43 82  1  0
A    1
C4
A    2
C5
A    3
C6
A    4
N1
A    5
N3
A    6
CBQ
A    7
NBP
A    8
C2
A    9
CAA
A   10
NAH
A   11
CAI
A   12
CAJ
A   13
CAK
A   14
CAL
A   15
NAM
A   16
CAN
A   17
CAO
A   18
SAP
A   19
OAQ
A   20
OAR
A   21
CAS
A   22
CAX
A   23
CAW
A   24
CAT
A   25
CAU
A   26
CAV
A   27
SAY
A   28
OAZ
A   29
OBA
A   30
NBB
A   31
CBE
A   32
CBF
A   33
CBG
A   34
CBH
A   35
CBI
A   36
CBC
A   37
CBD
A   38
CBJ
A   39
CBK
A   40
CBL
A   41
CL
A   42
CBM
A   43
CBN
M  END
