5ML6_9GD_B_201
     RDKit          3D

 84 88  0  0  0  0  0  0  0  0999 V2000
  -21.1830   33.8730    4.0960 C   0  0  0  0  0  0  0  0  0  0  0  0
  -22.1880   34.9900    4.3260 C   0  0  0  0  0  0  0  0  0  0  0  0
  -21.9220   35.5280    5.6790 N   0  0  0  0  0  0  0  0  0  0  0  0
  -22.1440   34.5030    6.7230 C   0  0  0  0  0  0  0  0  0  0  0  0
  -21.1950   33.3220    6.5310 C   0  0  0  0  0  0  0  0  0  0  0  0
  -21.3480   32.7500    5.1240 C   0  0  0  0  0  0  0  0  0  0  0  0
  -20.2840   31.6640    4.9230 C   0  0  0  0  0  0  0  0  0  0  0  0
  -20.2660   31.2290    3.4890 N   0  0  0  0  0  0  0  0  0  0  0  0
  -18.9880   30.6160    3.1130 C   0  0  0  0  0  0  0  0  0  0  0  0
  -18.2470   31.5780    2.3780 C   0  0  0  0  0  0  0  0  0  0  0  0
  -17.2640   32.3680    2.9930 C   0  0  0  0  0  0  0  0  0  0  0  0
  -16.5370   33.3080    2.2510 C   0  0  0  0  0  0  0  0  0  0  0  0
  -15.5990   34.0620    2.8390 N   0  0  0  0  0  0  0  0  0  0  0  0
  -16.7550   33.5100    0.8760 C   0  0  0  0  0  0  0  0  0  0  0  0
  -16.0210   34.4700    0.1330 C   0  0  0  0  0  0  0  0  0  0  0  0
  -16.4070   34.8890   -0.9950 O   0  0  0  0  0  0  0  0  0  0  0  0
  -14.9520   34.9420    0.6030 O   0  0  0  0  0  0  0  0  0  0  0  0
  -17.7320   32.7070    0.2780 C   0  0  0  0  0  0  0  0  0  0  0  0
  -18.4720   31.7600    1.0090 C   0  0  0  0  0  0  0  0  0  0  0  0
  -21.7030   30.2370    3.0030 S   0  0  0  0  0  0  0  0  0  0  0  0
  -21.5640   29.8020    1.5540 O   0  0  0  0  0  0  0  0  0  0  0  0
  -22.9790   31.0210    3.1750 O   0  0  0  0  0  0  0  0  0  0  0  0
  -21.8850   28.7430    4.0000 C   0  0  0  0  0  0  0  0  0  0  0  0
  -20.9820   27.7120    3.8310 C   0  0  0  0  0  0  0  0  0  0  0  0
  -21.1160   26.5550    4.5850 C   0  0  0  0  0  0  0  0  0  0  0  0
  -22.9370   28.6210    4.9060 C   0  0  0  0  0  0  0  0  0  0  0  0
  -23.0730   27.4600    5.6640 C   0  0  0  0  0  0  0  0  0  0  0  0
  -22.1630   26.4270    5.4850 C   0  0  0  0  0  0  0  0  0  0  0  0
  -22.2890   24.9530    6.4100 S   0  0  0  0  0  0  0  0  0  0  0  0
  -23.2030   25.2260    7.5810 O   0  0  0  0  0  0  0  0  0  0  0  0
  -20.8880   24.6490    6.8820 O   0  0  0  0  0  0  0  0  0  0  0  0
  -22.9330   23.4640    5.4730 N   0  0  0  0  0  0  0  0  0  0  0  0
  -23.6790   23.5040    4.2140 C   0  0  0  0  0  0  0  0  0  0  0  0
  -24.1400   24.8170    3.7920 C   0  0  0  0  0  0  0  0  0  0  0  0
  -25.1700   24.3440    2.7590 C   0  0  0  0  0  0  0  0  0  0  0  0
  -25.5540   22.9060    3.0820 C   0  0  0  0  0  0  0  0  0  0  0  0
  -24.9560   22.7400    4.4320 C   0  0  0  0  0  0  0  0  0  0  0  0
  -21.8680   22.4760    5.1940 C   0  0  0  0  0  0  0  0  0  0  0  0
  -21.8360   21.4730    6.1530 C   0  0  0  0  0  0  0  0  0  0  0  0
  -21.1200   20.3300    5.8470 C   0  0  0  0  0  0  0  0  0  0  0  0
  -21.0390   19.3010    6.7700 C   0  0  0  0  0  0  0  0  0  0  0  0
  -21.6710   19.4350    7.9950 C   0  0  0  0  0  0  0  0  0  0  0  0
  -21.5630   18.2080    9.1090 Cl  0  0  0  0  0  0  0  0  0  0  0  0
  -22.3870   20.5740    8.3210 C   0  0  0  0  0  0  0  0  0  0  0  0
  -22.4730   21.6010    7.3950 C   0  0  0  0  0  0  0  0  0  0  0  0
  -21.3325   33.4595    3.0877 H   0  0  0  0  0  0  0  0  0  0  0  0
  -20.1712   34.2916    4.2012 H   0  0  0  0  0  0  0  0  0  0  0  0
  -22.0569   35.7795    3.5713 H   0  0  0  0  0  0  0  0  0  0  0  0
  -23.2198   34.6177    4.2435 H   0  0  0  0  0  0  0  0  0  0  0  0
  -20.9439   35.8473    5.7260 H   0  0  0  0  0  0  0  0  0  0  0  0
  -21.9674   34.9509    7.7120 H   0  0  0  0  0  0  0  0  0  0  0  0
  -23.1797   34.1401    6.6475 H   0  0  0  0  0  0  0  0  0  0  0  0
  -21.4316   32.5413    7.2689 H   0  0  0  0  0  0  0  0  0  0  0  0
  -20.1594   33.6659    6.6694 H   0  0  0  0  0  0  0  0  0  0  0  0
  -22.3463   32.3073    4.9919 H   0  0  0  0  0  0  0  0  0  0  0  0
  -20.5180   30.8008    5.5634 H   0  0  0  0  0  0  0  0  0  0  0  0
  -19.2971   32.0688    5.1918 H   0  0  0  0  0  0  0  0  0  0  0  0
  -19.1678   29.7267    2.4911 H   0  0  0  0  0  0  0  0  0  0  0  0
  -18.4319   30.3045    4.0095 H   0  0  0  0  0  0  0  0  0  0  0  0
  -17.0623   32.2482    4.0677 H   0  0  0  0  0  0  0  0  0  0  0  0
  -15.5436   34.1066    3.8665 H   0  0  0  0  0  0  0  0  0  0  0  0
  -14.9331   34.5972    2.2636 H   0  0  0  0  0  0  0  0  0  0  0  0
  -14.8246   34.9983    1.5831 H   0  0  0  0  0  0  0  0  0  0  0  0
  -17.9279   32.8197   -0.7985 H   0  0  0  0  0  0  0  0  0  0  0  0
  -19.2363   31.1556    0.4986 H   0  0  0  0  0  0  0  0  0  0  0  0
  -20.1622   27.8073    3.1037 H   0  0  0  0  0  0  0  0  0  0  0  0
  -20.3897   25.7371    4.4685 H   0  0  0  0  0  0  0  0  0  0  0  0
  -23.6602   29.4416    5.0226 H   0  0  0  0  0  0  0  0  0  0  0  0
  -23.8900   27.3632    6.3941 H   0  0  0  0  0  0  0  0  0  0  0  0
  -22.9831   23.1143    3.4564 H   0  0  0  0  0  0  0  0  0  0  0  0
  -23.3372   25.4171    3.3387 H   0  0  0  0  0  0  0  0  0  0  0  0
  -24.5141   25.4809    4.5853 H   0  0  0  0  0  0  0  0  0  0  0  0
  -24.7337   24.3938    1.7505 H   0  0  0  0  0  0  0  0  0  0  0  0
  -26.0608   24.9884    2.7930 H   0  0  0  0  0  0  0  0  0  0  0  0
  -26.6461   22.7769    3.1069 H   0  0  0  0  0  0  0  0  0  0  0  0
  -25.2060   22.1702    2.3421 H   0  0  0  0  0  0  0  0  0  0  0  0
  -25.5787   23.1918    5.2182 H   0  0  0  0  0  0  0  0  0  0  0  0
  -24.8355   21.7013    4.7735 H   0  0  0  0  0  0  0  0  0  0  0  0
  -22.0516   22.0221    4.2090 H   0  0  0  0  0  0  0  0  0  0  0  0
  -20.9006   22.9994    5.2119 H   0  0  0  0  0  0  0  0  0  0  0  0
  -20.6164   20.2386    4.8733 H   0  0  0  0  0  0  0  0  0  0  0  0
  -20.4777   18.3853    6.5324 H   0  0  0  0  0  0  0  0  0  0  0  0
  -22.8801   20.6624    9.3003 H   0  0  0  0  0  0  0  0  0  0  0  0
  -23.0391   22.5135    7.6336 H   0  0  0  0  0  0  0  0  0  0  0  0
 16 15  2  0
 15 17  1  0
 15 14  1  0
 18 14  2  0
 18 19  1  0
 14 12  1  0
 19 10  2  0
 21 20  2  0
 12 13  1  0
 12 11  2  0
 10 11  1  0
 10  9  1  0
 35 36  1  0
 35 34  1  0
 20 22  2  0
 20  8  1  0
 20 23  1  0
 36 37  1  0
  9  8  1  0
  8  7  1  0
 34 33  1  0
 24 23  2  0
 24 25  1  0
 23 26  1  0
  1  2  1  0
  1  6  1  0
 33 37  1  0
 33 32  1  0
  2  3  1  0
 25 28  2  0
 26 27  2  0
  7  6  1  0
  6  5  1  0
 38 32  1  0
 38 39  1  0
 32 29  1  0
 28 27  1  0
 28 29  1  0
  3  4  1  0
 40 39  2  0
 40 41  1  0
 39 45  1  0
 29 31  2  0
 29 30  2  0
  5  4  1  0
 41 42  2  0
 45 44  2  0
 42 44  1  0
 42 43  1  0
  1 46  1  0
  1 47  1  0
  2 48  1  0
  2 49  1  0
  3 50  1  0
  4 51  1  0
  4 52  1  0
  5 53  1  0
  5 54  1  0
  6 55  1  0
  7 56  1  0
  7 57  1  0
  9 58  1  0
  9 59  1  0
 11 60  1  0
 13 61  1  0
 13 62  1  0
 17 63  1  0
 18 64  1  0
 19 65  1  0
 24 66  1  0
 25 67  1  0
 26 68  1  0
 27 69  1  0
 33 70  1  0
 34 71  1  0
 34 72  1  0
 35 73  1  0
 35 74  1  0
 36 75  1  0
 36 76  1  0
 37 77  1  0
 37 78  1  0
 38 79  1  0
 38 80  1  0
 40 81  1  0
 41 82  1  0
 44 83  1  0
 45 84  1  0
A    1
CAK
A    2
CAL
A    3
NAM
A    4
CAN
A    5
CAO
A    6
CAJ
A    7
CAI
A    8
NAH
A    9
CAA
A   10
CAB
A   11
CAC
A   12
CAD
A   13
NBP
A   14
CAE
A   15
CBQ
A   16
OBS
A   17
OBR
A   18
CAF
A   19
CAG
A   20
SAP
A   21
OAQ
A   22
OAR
A   23
CAS
A   24
CAX
A   25
CAW
A   26
CAT
A   27
CAU
A   28
CAV
A   29
SAY
A   30
OAZ
A   31
OBA
A   32
NBB
A   33
CBE
A   34
CBF
A   35
CBG
A   36
CBH
A   37
CBI
A   38
CBC
A   39
CBD
A   40
CBJ
A   41
CBK
A   42
CBL
A   43
CL
A   44
CBM
A   45
CBN
M  END
