5MMA_VHT_A_417
     RDKit          3D

 46 48  0  0  0  0  0  0  0  0999 V2000
  -37.6700   36.6640  -19.5120 F   0  0  0  0  0  0  0  0  0  0  0  0
  -38.5160   36.9440  -20.4950 C   0  0  0  0  0  0  0  0  0  0  0  0
  -39.6750   37.6590  -20.2240 C   0  0  0  0  0  0  0  0  0  0  0  0
  -40.5630   37.9500  -21.2530 C   0  0  0  0  0  0  0  0  0  0  0  0
  -41.6900   38.6430  -20.9950 F   0  0  0  0  0  0  0  0  0  0  0  0
  -40.2920   37.5290  -22.5520 C   0  0  0  0  0  0  0  0  0  0  0  0
  -39.1290   36.8150  -22.8220 C   0  0  0  0  0  0  0  0  0  0  0  0
  -38.2430   36.5150  -21.7940 C   0  0  0  0  0  0  0  0  0  0  0  0
  -37.0830   35.8010  -22.0800 C   0  0  0  0  0  0  0  0  0  0  0  0
  -36.9050   34.6510  -21.1800 N   0  0  0  0  0  0  0  0  0  0  0  0
  -37.0930   33.3900  -21.6080 C   0  0  0  0  0  0  0  0  0  0  0  0
  -37.3930   33.1170  -22.7630 O   0  0  0  0  0  0  0  0  0  0  0  0
  -36.8560   32.3800  -20.6760 C   0  0  0  0  0  0  0  0  0  0  0  0
  -36.3720   32.6850  -19.4050 C   0  0  0  0  0  0  0  0  0  0  0  0
  -36.1620   33.8520  -19.0780 O   0  0  0  0  0  0  0  0  0  0  0  0
  -36.1340   31.7050  -18.5150 N   0  0  0  0  0  0  0  0  0  0  0  0
  -35.6650   32.0320  -17.2670 O   0  0  0  0  0  0  0  0  0  0  0  0
  -36.3430   30.4100  -18.8060 C   0  0  0  0  0  0  0  0  0  0  0  0
  -36.0790   29.4850  -17.8680 N   0  0  0  0  0  0  0  0  0  0  0  0
  -36.2770   28.1240  -18.1220 C   0  0  0  0  0  0  0  0  0  0  0  0
  -36.7510   27.7210  -19.3640 C   0  0  0  0  0  0  0  0  0  0  0  0
  -37.0160   28.6810  -20.3340 C   0  0  0  0  0  0  0  0  0  0  0  0
  -36.8180   30.0330  -20.0580 C   0  0  0  0  0  0  0  0  0  0  0  0
  -37.0610   31.0400  -20.9940 C   0  0  0  0  0  0  0  0  0  0  0  0
  -37.5460   30.7250  -22.2030 N   0  0  0  0  0  0  0  0  0  0  0  0
  -38.9570   30.2900  -22.3310 C   0  0  0  0  0  0  0  0  0  0  0  0
  -39.6050   30.5870  -23.6840 C   0  0  0  0  0  0  0  0  0  0  0  0
  -40.4040   29.7940  -24.1760 O   0  0  0  0  0  0  0  0  0  0  0  0
  -39.2760   31.7730  -24.2520 O   0  0  0  0  0  0  0  0  0  0  0  0
  -40.4640   32.3760  -24.7670 C   0  0  0  0  0  0  0  0  0  0  0  0
  -39.8897   37.9940  -19.1985 H   0  0  0  0  0  0  0  0  0  0  0  0
  -40.9968   37.7607  -23.3641 H   0  0  0  0  0  0  0  0  0  0  0  0
  -38.9106   36.4878  -23.8492 H   0  0  0  0  0  0  0  0  0  0  0  0
  -37.1379   35.4354  -23.1160 H   0  0  0  0  0  0  0  0  0  0  0  0
  -36.2262   36.4765  -21.9400 H   0  0  0  0  0  0  0  0  0  0  0  0
  -36.6305   34.8151  -20.2009 H   0  0  0  0  0  0  0  0  0  0  0  0
  -36.1353   31.7041  -16.4599 H   0  0  0  0  0  0  0  0  0  0  0  0
  -36.0589   27.3779  -17.3437 H   0  0  0  0  0  0  0  0  0  0  0  0
  -36.9148   26.6544  -19.5776 H   0  0  0  0  0  0  0  0  0  0  0  0
  -37.3836   28.3724  -21.3238 H   0  0  0  0  0  0  0  0  0  0  0  0
  -36.9433   30.7847  -23.0361 H   0  0  0  0  0  0  0  0  0  0  0  0
  -39.5433   30.8002  -21.5526 H   0  0  0  0  0  0  0  0  0  0  0  0
  -38.9516   29.1950  -22.2266 H   0  0  0  0  0  0  0  0  0  0  0  0
  -41.1024   32.7000  -23.9319 H   0  0  0  0  0  0  0  0  0  0  0  0
  -40.1957   33.2471  -25.3829 H   0  0  0  0  0  0  0  0  0  0  0  0
  -41.0088   31.6453  -25.3829 H   0  0  0  0  0  0  0  0  0  0  0  0
 30 29  1  0
 29 27  1  0
 28 27  2  0
 27 26  1  0
  7  6  2  0
  7  8  1  0
 12 11  2  0
  6  4  1  0
 26 25  1  0
 25 24  1  0
  9  8  1  0
  9 10  1  0
  8  2  2  0
 11 10  1  0
 11 13  1  0
  4  5  1  0
  4  3  2  0
 24 13  2  0
 24 23  1  0
 13 14  1  0
  2  3  1  0
  2  1  1  0
 22 23  1  0
 22 21  2  0
 23 18  2  0
 14 15  2  0
 14 16  1  0
 21 20  1  0
 18 16  1  0
 18 19  1  0
 16 17  1  0
 20 19  2  0
  3 31  1  0
  6 32  1  0
  7 33  1  0
  9 34  1  0
  9 35  1  0
 10 36  1  0
 17 37  1  0
 20 38  1  0
 21 39  1  0
 22 40  1  0
 25 41  1  0
 26 42  1  0
 26 43  1  0
 30 44  1  0
 30 45  1  0
 30 46  1  0
A    1
FAG
A    2
CAW
A    3
CAM
A    4
CAV
A    5
FAF
A    6
CAJ
A    7
CAK
A    8
CAX
A    9
CAO
A   10
NAQ
A   11
CAU
A   12
OAC
A   13
CAZ
A   14
CBA
A   15
OAD
A   16
NBD
A   17
OAE
A   18
CBC
A   19
NAP
A   20
CAI
A   21
CAH
A   22
CAL
A   23
CBB
A   24
CAY
A   25
N
A   26
CA
A   27
C
A   28
O
A   29
OAS
A   30
CAA
M  END
