5MMG_UT0_A_1201
     RDKit          3D

 46 48  0  0  0  0  0  0  0  0999 V2000
   -0.8740   -3.5460   -6.4300 C   0  0  0  0  0  0  0  0  0  0  0  0
   -6.6770   -1.9460   -1.2010 C   0  0  0  0  0  0  0  0  0  0  0  0
    3.3800   -1.2280    0.6830 C   0  0  0  0  0  0  0  0  0  0  0  0
   -4.9930   -2.0660   -4.6040 C   0  0  0  0  0  0  0  0  0  0  0  0
   -3.7070   -2.0410   -5.1510 C   0  0  0  0  0  0  0  0  0  0  0  0
   -0.7380   -3.8330   -2.5100 C   0  0  0  0  0  0  0  0  0  0  0  0
    0.1660   -4.8260   -2.1010 C   0  0  0  0  0  0  0  0  0  0  0  0
    1.9220   -5.3670   -0.4810 C   0  0  0  0  0  0  0  0  0  0  0  0
    2.4860   -4.6740    0.5130 C   0  0  0  0  0  0  0  0  0  0  0  0
   -4.0380   -1.7760   -2.4220 C   0  0  0  0  0  0  0  0  0  0  0  0
    0.1090   -2.4510   -0.7630 C   0  0  0  0  0  0  0  0  0  0  0  0
   -1.1520   -2.0700   -6.1780 C   0  0  0  0  0  0  0  0  0  0  0  0
   -6.4920   -1.9780   -2.7280 C   0  0  0  0  0  0  0  0  0  0  0  0
   -0.7840   -2.6160   -1.8300 C   0  0  0  0  0  0  0  0  0  0  0  0
   -5.1740   -1.9300   -3.2310 C   0  0  0  0  0  0  0  0  0  0  0  0
   -2.7430   -1.7770   -2.9500 C   0  0  0  0  0  0  0  0  0  0  0  0
   -2.5880   -1.8930   -4.3280 C   0  0  0  0  0  0  0  0  0  0  0  0
    0.9890   -4.5980   -1.0610 C   0  0  0  0  0  0  0  0  0  0  0  0
    0.9590   -3.4270   -0.4070 C   0  0  0  0  0  0  0  0  0  0  0  0
   -1.6310   -1.6010   -2.1680 N   0  0  0  0  0  0  0  0  0  0  0  0
    1.8660   -3.4910    0.5900 N   0  0  0  0  0  0  0  0  0  0  0  0
   -7.4780   -2.1600   -3.4650 O   0  0  0  0  0  0  0  0  0  0  0  0
    1.0650   -1.4530    2.0000 O   0  0  0  0  0  0  0  0  0  0  0  0
    3.0330   -2.8260    2.8370 O   0  0  0  0  0  0  0  0  0  0  0  0
   -1.2980   -1.8490   -4.7800 O   0  0  0  0  0  0  0  0  0  0  0  0
    2.2860   -2.2680    1.6190 S   0  0  0  0  0  0  0  0  0  0  0  0
   -0.7753   -4.0700   -5.4679 H   0  0  0  0  0  0  0  0  0  0  0  0
   -1.7056   -3.9833   -7.0021 H   0  0  0  0  0  0  0  0  0  0  0  0
    0.0597   -3.6508   -7.0021 H   0  0  0  0  0  0  0  0  0  0  0  0
   -5.7068   -2.1138   -0.7105 H   0  0  0  0  0  0  0  0  0  0  0  0
   -7.0751   -0.9656   -0.9004 H   0  0  0  0  0  0  0  0  0  0  0  0
   -7.3813   -2.7357   -0.9004 H   0  0  0  0  0  0  0  0  0  0  0  0
    4.0020   -0.6367    1.3712 H   0  0  0  0  0  0  0  0  0  0  0  0
    4.0266   -1.8525    0.0491 H   0  0  0  0  0  0  0  0  0  0  0  0
    2.7890   -0.5506    0.0491 H   0  0  0  0  0  0  0  0  0  0  0  0
   -5.8655   -2.1937   -5.2615 H   0  0  0  0  0  0  0  0  0  0  0  0
   -3.5750   -2.1387   -6.2387 H   0  0  0  0  0  0  0  0  0  0  0  0
   -1.4077   -4.0140   -3.3637 H   0  0  0  0  0  0  0  0  0  0  0  0
    0.2016   -5.7897   -2.6302 H   0  0  0  0  0  0  0  0  0  0  0  0
    2.1798   -6.3954   -0.7741 H   0  0  0  0  0  0  0  0  0  0  0  0
    3.3125   -5.0154    1.1535 H   0  0  0  0  0  0  0  0  0  0  0  0
   -4.1703   -1.6504   -1.3372 H   0  0  0  0  0  0  0  0  0  0  0  0
    0.1136   -1.5026   -0.2058 H   0  0  0  0  0  0  0  0  0  0  0  0
   -0.3138   -1.4683   -6.5592 H   0  0  0  0  0  0  0  0  0  0  0  0
   -2.0775   -1.7767   -6.6952 H   0  0  0  0  0  0  0  0  0  0  0  0
   -1.4243   -0.6547   -1.8178 H   0  0  0  0  0  0  0  0  0  0  0  0
  1 12  1  0
 12 25  1  0
  5  4  2  0
  5 17  1  0
 25 17  1  0
  4 15  1  0
 17 16  2  0
 22 13  2  0
 15 13  1  0
 15 10  2  0
 16 10  1  0
 16 20  1  0
 13  2  1  0
  6  7  2  0
  6 14  1  0
 20 14  1  0
  7 18  1  0
 14 11  2  0
 18  8  1  0
 18 19  2  0
 11 19  1  0
  8  9  2  0
 19 21  1  0
  9 21  1  0
 21 26  1  0
  3 26  1  0
 26 23  2  0
 26 24  2  0
  1 27  1  0
  1 28  1  0
  1 29  1  0
  2 30  1  0
  2 31  1  0
  2 32  1  0
  3 33  1  0
  3 34  1  0
  3 35  1  0
  4 36  1  0
  5 37  1  0
  6 38  1  0
  7 39  1  0
  8 40  1  0
  9 41  1  0
 10 42  1  0
 11 43  1  0
 12 44  1  0
 12 45  1  0
 20 46  1  0
A    1
CAA
A    2
CAB
A    3
CAC
A    4
CAG
A    5
CAH
A    6
CAI
A    7
CAJ
A    8
CAK
A    9
CAL
A   10
CAM
A   11
CAN
A   12
CAO
A   13
CAR
A   14
CAS
A   15
CAT
A   16
CAU
A   17
CAV
A   18
CAW
A   19
CAX
A   20
NAP
A   21
NAY
A   22
OAD
A   23
OAE
A   24
OAF
A   25
OAQ
A   26
SAZ
M  END
