5MMO_9JG_A_301
     RDKit          3D

 51 53  0  0  0  0  0  0  0  0999 V2000
  -45.7790    5.2690    5.0550 O   0  0  0  0  0  0  0  0  0  0  0  0
  -45.3340    5.0750    3.9460 C   0  0  0  0  0  0  0  0  0  0  0  0
  -44.2920    5.7860    3.4580 N   0  0  0  0  0  0  0  0  0  0  0  0
  -43.6220    6.8720    4.1890 C   0  0  0  0  0  0  0  0  0  0  0  0
  -43.1270    7.9240    3.2300 C   0  0  0  0  0  0  0  0  0  0  0  0
  -45.8590    4.1960    3.0430 N   0  0  0  0  0  0  0  0  0  0  0  0
  -47.0440    3.5190    3.1330 C   0  0  0  0  0  0  0  0  0  0  0  0
  -47.5740    3.0530    1.9510 N   0  0  0  0  0  0  0  0  0  0  0  0
  -48.7770    2.4270    1.9600 C   0  0  0  0  0  0  0  0  0  0  0  0
  -49.4870    2.2080    3.1480 C   0  0  0  0  0  0  0  0  0  0  0  0
  -47.6970    3.3010    4.3270 C   0  0  0  0  0  0  0  0  0  0  0  0
  -48.9400    2.6350    4.3800 C   0  0  0  0  0  0  0  0  0  0  0  0
  -49.6530    2.4370    5.5780 C   0  0  0  0  0  0  0  0  0  0  0  0
  -49.1570    2.8790    6.9030 C   0  0  0  0  0  0  0  0  0  0  0  0
  -48.5190    4.1030    7.0610 C   0  0  0  0  0  0  0  0  0  0  0  0
  -48.0770    4.5060    8.2980 C   0  0  0  0  0  0  0  0  0  0  0  0
  -48.2590    3.7480    9.3790 N   0  0  0  0  0  0  0  0  0  0  0  0
  -48.8950    2.5590    9.3010 C   0  0  0  0  0  0  0  0  0  0  0  0
  -49.3730    2.1100    8.0690 C   0  0  0  0  0  0  0  0  0  0  0  0
  -50.8800    1.7690    5.5510 C   0  0  0  0  0  0  0  0  0  0  0  0
  -51.3990    1.3160    4.3460 C   0  0  0  0  0  0  0  0  0  0  0  0
  -50.6910    1.5060    3.1490 C   0  0  0  0  0  0  0  0  0  0  0  0
  -51.2520    1.0350    1.8130 C   0  0  0  0  0  0  0  0  0  0  0  0
  -52.2020   -0.0380    1.9700 N   0  0  0  0  0  0  0  0  0  0  0  0
  -53.2250   -0.2710    1.1430 C   0  0  0  0  0  0  0  0  0  0  0  0
  -53.4770    0.4370    0.1720 O   0  0  0  0  0  0  0  0  0  0  0  0
  -54.1010   -1.4210    1.3720 O   0  0  0  0  0  0  0  0  0  0  0  0
  -55.1240   -1.6570    0.3850 C   0  0  0  0  0  0  0  0  0  0  0  0
  -56.2730   -0.7530    0.6020 C   0  0  0  0  0  0  0  0  0  0  0  0
  -57.2840   -0.0010    0.8470 C   0  0  0  0  0  0  0  0  0  0  0  0
  -43.9464    5.5524    2.5162 H   0  0  0  0  0  0  0  0  0  0  0  0
  -42.7684    6.4602    4.7474 H   0  0  0  0  0  0  0  0  0  0  0  0
  -44.3413    7.3318    4.8827 H   0  0  0  0  0  0  0  0  0  0  0  0
  -42.7256    8.7771    3.7967 H   0  0  0  0  0  0  0  0  0  0  0  0
  -42.3344    7.4990    2.5967 H   0  0  0  0  0  0  0  0  0  0  0  0
  -43.9597    8.2638    2.5967 H   0  0  0  0  0  0  0  0  0  0  0  0
  -45.2982    4.0227    2.1966 H   0  0  0  0  0  0  0  0  0  0  0  0
  -49.2073    2.0816    1.0084 H   0  0  0  0  0  0  0  0  0  0  0  0
  -47.2379    3.6549    5.2618 H   0  0  0  0  0  0  0  0  0  0  0  0
  -48.3664    4.7551    6.1883 H   0  0  0  0  0  0  0  0  0  0  0  0
  -47.5628    5.4733    8.3981 H   0  0  0  0  0  0  0  0  0  0  0  0
  -49.0356    1.9473   10.2044 H   0  0  0  0  0  0  0  0  0  0  0  0
  -49.9183    1.1568    8.0054 H   0  0  0  0  0  0  0  0  0  0  0  0
  -51.4353    1.6019    6.4858 H   0  0  0  0  0  0  0  0  0  0  0  0
  -52.3725    0.8042    4.3290 H   0  0  0  0  0  0  0  0  0  0  0  0
  -50.4210    0.6834    1.1839 H   0  0  0  0  0  0  0  0  0  0  0  0
  -51.7746    1.8838    1.3477 H   0  0  0  0  0  0  0  0  0  0  0  0
  -52.0838   -0.6687    2.7757 H   0  0  0  0  0  0  0  0  0  0  0  0
  -55.4652   -2.7001    0.4599 H   0  0  0  0  0  0  0  0  0  0  0  0
  -54.7049   -1.4652   -0.6138 H   0  0  0  0  0  0  0  0  0  0  0  0
  -58.1504    0.6434    1.0570 H   0  0  0  0  0  0  0  0  0  0  0  0
 26 25  2  0
 28 29  1  0
 28 27  1  0
 29 30  3  0
 25 27  1  0
 25 24  1  0
 23 24  1  0
 23 22  1  0
  8  9  1  0
  8  7  2  0
  9 10  2  0
  6  7  1  0
  6  2  1  0
  7 11  1  0
 10 22  1  0
 10 12  1  0
 22 21  2  0
  5  4  1  0
  3  2  1  0
  3  4  1  0
  2  1  2  0
 11 12  2  0
 21 20  1  0
 12 13  1  0
 20 13  2  0
 13 14  1  0
 14 15  2  0
 14 19  1  0
 15 16  1  0
 19 18  2  0
 16 17  2  0
 18 17  1  0
  3 31  1  0
  4 32  1  0
  4 33  1  0
  5 34  1  0
  5 35  1  0
  5 36  1  0
  6 37  1  0
  9 38  1  0
 11 39  1  0
 15 40  1  0
 16 41  1  0
 18 42  1  0
 19 43  1  0
 20 44  1  0
 21 45  1  0
 23 46  1  0
 23 47  1  0
 24 48  1  0
 28 49  1  0
 28 50  1  0
 30 51  1  0
A    1
O27
A    2
C25
A    3
N28
A    4
C29
A    5
C30
A    6
N22
A    7
C19
A    8
N17
A    9
C13
A   10
C10
A   11
C16
A   12
C12
A   13
C15
A   14
C18
A   15
C21
A   16
C24
A   17
N26
A   18
C23
A   19
C20
A   20
C14
A   21
C11
A   22
C8
A   23
C6
A   24
N4
A   25
C2
A   26
O1
A   27
O3
A   28
C5
A   29
C7
A   30
C9
M  END
