5MNR_JC2_E_409
     RDKit          3D

 62 62  0  0  0  0  0  0  0  0999 V2000
    8.4660   42.6530   -5.4980 C   0  0  0  0  0  0  0  0  0  0  0  0
   12.1420   40.0280   -6.8230 C   0  0  0  0  0  0  0  0  0  0  0  0
   12.8240   40.3660   -9.1820 C   0  0  0  0  0  0  0  0  0  0  0  0
   13.7880   40.3360  -11.3650 C   0  0  0  0  0  0  0  0  0  0  0  0
   15.3050   40.4860  -11.4950 C   0  0  0  0  0  0  0  0  0  0  0  0
   15.9740   39.8800  -12.5510 C   0  0  0  0  0  0  0  0  0  0  0  0
   17.3600   40.0010  -12.6890 C   0  0  0  0  0  0  0  0  0  0  0  0
   16.0510   41.2160  -10.5830 C   0  0  0  0  0  0  0  0  0  0  0  0
   12.4320   37.4110   -6.1040 O   0  0  0  0  0  0  0  0  0  0  0  0
   11.4740   38.5630   -5.9680 P   0  0  0  0  0  0  0  0  0  0  0  0
   11.2350   39.0620   -4.3980 N   0  0  0  0  0  0  0  0  0  0  0  0
   10.0810   38.6280   -3.6120 C   0  0  0  0  0  0  0  0  0  0  0  0
   10.4540   38.6620   -2.1340 C   0  0  0  0  0  0  0  0  0  0  0  0
    9.3790   38.1220   -1.2020 C   0  0  0  0  0  0  0  0  0  0  0  0
    9.6700   38.5330    0.2290 C   0  0  0  0  0  0  0  0  0  0  0  0
    9.2370   36.6040   -1.3540 C   0  0  0  0  0  0  0  0  0  0  0  0
    8.8660   39.4970   -3.8620 C   0  0  0  0  0  0  0  0  0  0  0  0
    9.1670   40.8370   -4.0590 N   0  0  0  0  0  0  0  0  0  0  0  0
    8.1180   41.8140   -4.2790 C   0  0  0  0  0  0  0  0  0  0  0  0
    7.5550   43.3850   -5.9670 O   0  0  0  0  0  0  0  0  0  0  0  0
    9.6180   42.5930   -5.9930 O   0  0  0  0  0  0  0  0  0  0  0  0
    7.7440   39.0680   -3.8230 O   0  0  0  0  0  0  0  0  0  0  0  0
   10.1100   38.2090   -6.5320 O   0  0  0  0  0  0  0  0  0  0  0  0
   12.8010   39.5950   -8.0290 N   0  0  0  0  0  0  0  0  0  0  0  0
   13.4890   39.6670  -10.1630 O   0  0  0  0  0  0  0  0  0  0  0  0
   18.0760   40.7680  -11.7810 C   0  0  0  0  0  0  0  0  0  0  0  0
   17.4080   41.3680  -10.7210 C   0  0  0  0  0  0  0  0  0  0  0  0
   12.3680   41.4540   -9.2830 O   0  0  0  0  0  0  0  0  0  0  0  0
    7.8590   42.6460   -3.0340 C   0  0  0  0  0  0  0  0  0  0  0  0
    9.0750   43.4530   -2.6480 C   0  0  0  0  0  0  0  0  0  0  0  0
    8.7750   44.4970   -1.6780 N   0  0  0  0  0  0  0  0  0  0  0  0
   12.8634   40.5413   -6.1702 H   0  0  0  0  0  0  0  0  0  0  0  0
   11.3266   40.7241   -7.0692 H   0  0  0  0  0  0  0  0  0  0  0  0
   13.3194   41.3312  -11.3583 H   0  0  0  0  0  0  0  0  0  0  0  0
   13.4002   39.7568  -12.2160 H   0  0  0  0  0  0  0  0  0  0  0  0
   15.4048   39.2963  -13.2895 H   0  0  0  0  0  0  0  0  0  0  0  0
   17.8802   39.4908  -13.5131 H   0  0  0  0  0  0  0  0  0  0  0  0
   15.5429   41.6851   -9.7275 H   0  0  0  0  0  0  0  0  0  0  0  0
   12.6961   37.0934   -5.2043 H   0  0  0  0  0  0  0  0  0  0  0  0
   12.0695   38.7661   -3.8717 H   0  0  0  0  0  0  0  0  0  0  0  0
    9.8156   37.6052   -3.9175 H   0  0  0  0  0  0  0  0  0  0  0  0
   11.3641   38.0600   -1.9949 H   0  0  0  0  0  0  0  0  0  0  0  0
   10.5956   39.7205   -1.8701 H   0  0  0  0  0  0  0  0  0  0  0  0
    8.4097   38.5611   -1.4807 H   0  0  0  0  0  0  0  0  0  0  0  0
    9.1750   37.8339    0.9191 H   0  0  0  0  0  0  0  0  0  0  0  0
   10.7560   38.5126    0.4027 H   0  0  0  0  0  0  0  0  0  0  0  0
    9.2900   39.5505    0.4027 H   0  0  0  0  0  0  0  0  0  0  0  0
    9.1934   36.1383   -0.3584 H   0  0  0  0  0  0  0  0  0  0  0  0
    8.3136   36.3756   -1.9064 H   0  0  0  0  0  0  0  0  0  0  0  0
   10.1021   36.2083   -1.9064 H   0  0  0  0  0  0  0  0  0  0  0  0
   10.1506   41.1426   -4.0488 H   0  0  0  0  0  0  0  0  0  0  0  0
    7.1689   41.2972   -4.4843 H   0  0  0  0  0  0  0  0  0  0  0  0
    6.9480   43.8728   -5.3557 H   0  0  0  0  0  0  0  0  0  0  0  0
   13.2724   38.6792   -8.0352 H   0  0  0  0  0  0  0  0  0  0  0  0
   19.1617   40.8996  -11.8993 H   0  0  0  0  0  0  0  0  0  0  0  0
   17.9691   41.9675   -9.9891 H   0  0  0  0  0  0  0  0  0  0  0  0
    7.0216   43.3319   -3.2297 H   0  0  0  0  0  0  0  0  0  0  0  0
    7.6191   41.9636   -2.2053 H   0  0  0  0  0  0  0  0  0  0  0  0
    9.8238   42.7743   -2.2136 H   0  0  0  0  0  0  0  0  0  0  0  0
    9.4489   43.9444   -3.5583 H   0  0  0  0  0  0  0  0  0  0  0  0
    8.8829   44.1215   -0.7250 H   0  0  0  0  0  0  0  0  0  0  0  0
    9.4232   45.2862   -1.8115 H   0  0  0  0  0  0  0  0  0  0  0  0
  7  6  1  0
  7 26  2  0
  6  5  2  0
 26 27  1  0
  5  4  1  0
  5  8  1  0
  4 25  1  0
 27  8  2  0
 25  3  1  0
 28  3  2  0
  3 24  1  0
 24  2  1  0
  2 10  1  0
 23 10  2  0
  9 10  1  0
 21  1  2  0
 10 11  1  0
 20  1  1  0
  1 19  1  0
 11 12  1  0
 19 18  1  0
 19 29  1  0
 18 17  1  0
 17 22  2  0
 17 12  1  0
 12 13  1  0
 29 30  1  0
 30 31  1  0
 13 14  1  0
 16 14  1  0
 14 15  1  0
  2 32  1  0
  2 33  1  0
  4 34  1  0
  4 35  1  0
  6 36  1  0
  7 37  1  0
  8 38  1  0
  9 39  1  0
 11 40  1  0
 12 41  1  0
 13 42  1  0
 13 43  1  0
 14 44  1  0
 15 45  1  0
 15 46  1  0
 15 47  1  0
 16 48  1  0
 16 49  1  0
 16 50  1  0
 18 51  1  0
 19 52  1  0
 20 53  1  0
 24 54  1  0
 26 55  1  0
 27 56  1  0
 29 57  1  0
 29 58  1  0
 30 59  1  0
 30 60  1  0
 31 61  1  0
 31 62  1  0
A    1
C10
A    2
C11
A    3
C12
A    4
C13
A    5
C14
A    6
C15
A    7
C16
A    8
C19
A    9
O01
A   10
P01
A   11
N01
A   12
C01
A   13
C02
A   14
C03
A   15
C04
A   16
C05
A   17
C06
A   18
N02
A   19
C07
A   20
O02
A   21
O03
A   22
O04
A   23
O05
A   24
N04
A   25
O06
A   26
C17
A   27
C18
A   28
O07
A   29
C08
A   30
C09
A   31
N03
M  END
