5MO4_AY7_A_602
     RDKit          3D

 49 52  0  0  0  0  0  0  0  0999 V2000
  -47.0850   18.4480   10.4900 C   0  0  0  0  0  0  0  0  0  0  0  0
  -48.8630   16.7790   10.8500 C   0  0  0  0  0  0  0  0  0  0  0  0
  -47.0520   19.5330    9.5770 C   0  0  0  0  0  0  0  0  0  0  0  0
  -48.2760   20.2870    9.1250 C   0  0  0  0  0  0  0  0  0  0  0  0
  -43.3640   19.7120    8.7650 C   0  0  0  0  0  0  0  0  0  0  0  0
  -42.2390   21.7410    7.7800 C   0  0  0  0  0  0  0  0  0  0  0  0
  -41.2850   21.0660    6.9780 C   0  0  0  0  0  0  0  0  0  0  0  0
  -40.3550   21.7950    6.2300 C   0  0  0  0  0  0  0  0  0  0  0  0
  -40.4070   23.2090    6.2060 C   0  0  0  0  0  0  0  0  0  0  0  0
  -41.3900   23.8930    6.9550 C   0  0  0  0  0  0  0  0  0  0  0  0
  -42.3110   23.1490    7.7100 C   0  0  0  0  0  0  0  0  0  0  0  0
  -50.2490   20.8380    8.2600 C   0  0  0  0  0  0  0  0  0  0  0  0
  -49.2880   19.7360    8.4380 C   0  0  0  0  0  0  0  0  0  0  0  0
  -39.6570   24.0220    3.9790 C   0  0  0  0  0  0  0  0  0  0  0  0
  -48.2170   18.0430   11.1220 N   0  0  0  0  0  0  0  0  0  0  0  0
  -49.1850   16.3750   12.3080 C   0  0  0  0  0  0  0  0  0  0  0  0
  -49.5650   17.7100   13.0050 C   0  0  0  0  0  0  0  0  0  0  0  0
  -48.8700   18.8200   12.1750 C   0  0  0  0  0  0  0  0  0  0  0  0
  -45.9240   17.8160   10.8370 N   0  0  0  0  0  0  0  0  0  0  0  0
  -44.7240   18.1550   10.3100 C   0  0  0  0  0  0  0  0  0  0  0  0
  -44.6390   19.2240    9.3980 C   0  0  0  0  0  0  0  0  0  0  0  0
  -45.8190   19.9030    9.0400 C   0  0  0  0  0  0  0  0  0  0  0  0
  -43.2700   21.0440    8.4730 N   0  0  0  0  0  0  0  0  0  0  0  0
  -42.4760   18.8800    8.6070 O   0  0  0  0  0  0  0  0  0  0  0  0
  -39.4800   23.8850    5.4010 O   0  0  0  0  0  0  0  0  0  0  0  0
  -50.2330   15.3880   12.3270 O   0  0  0  0  0  0  0  0  0  0  0  0
  -48.5410   21.5440    9.3820 N   0  0  0  0  0  0  0  0  0  0  0  0
  -49.7230   21.8640    8.8100 N   0  0  0  0  0  0  0  0  0  0  0  0
  -38.5680   24.7180    3.5470 F   0  0  0  0  0  0  0  0  0  0  0  0
  -39.6760   22.8170    3.3720 F   0  0  0  0  0  0  0  0  0  0  0  0
  -41.2220   24.8070    3.5270 Cl  0  0  0  0  0  0  0  0  0  0  0  0
  -49.7717   16.8992   10.2418 H   0  0  0  0  0  0  0  0  0  0  0  0
  -48.2735   16.0537   10.2700 H   0  0  0  0  0  0  0  0  0  0  0  0
  -41.2761   19.9666    6.9439 H   0  0  0  0  0  0  0  0  0  0  0  0
  -39.5788   21.2664    5.6572 H   0  0  0  0  0  0  0  0  0  0  0  0
  -41.4334   24.9921    6.9470 H   0  0  0  0  0  0  0  0  0  0  0  0
  -43.1060   23.6749    8.2589 H   0  0  0  0  0  0  0  0  0  0  0  0
  -51.2247   20.7876    7.7545 H   0  0  0  0  0  0  0  0  0  0  0  0
  -49.3794   18.6974    8.0874 H   0  0  0  0  0  0  0  0  0  0  0  0
  -48.3461   15.8974   12.8355 H   0  0  0  0  0  0  0  0  0  0  0  0
  -49.2002   17.7199   14.0427 H   0  0  0  0  0  0  0  0  0  0  0  0
  -50.6548   17.8532   13.0483 H   0  0  0  0  0  0  0  0  0  0  0  0
  -48.1351   19.3714   12.7799 H   0  0  0  0  0  0  0  0  0  0  0  0
  -49.5584   19.5906   11.7977 H   0  0  0  0  0  0  0  0  0  0  0  0
  -43.8191   17.5974   10.5933 H   0  0  0  0  0  0  0  0  0  0  0  0
  -45.7679   20.7381    8.3259 H   0  0  0  0  0  0  0  0  0  0  0  0
  -44.0549   21.6254    8.8000 H   0  0  0  0  0  0  0  0  0  0  0  0
  -50.4642   15.1702   13.2647 H   0  0  0  0  0  0  0  0  0  0  0  0
  -47.9468   22.1828    9.9295 H   0  0  0  0  0  0  0  0  0  0  0  0
 30 14  1  0
 31 14  1  0
 29 14  1  0
 14 25  1  0
 25  9  1  0
  9  8  1  0
  9 10  2  0
  8  7  2  0
 10 11  1  0
  7  6  1  0
 11  6  2  0
  6 23  1  0
 12 13  1  0
 12 28  2  0
 13  4  2  0
 23  5  1  0
 24  5  2  0
  5 21  1  0
 28 27  1  0
 22 21  2  0
 22  3  1  0
  4 27  1  0
  4  3  1  0
 21 20  1  0
  3  1  2  0
 20 19  2  0
  1 19  1  0
  1 15  1  0
  2 15  1  0
  2 16  1  0
 15 18  1  0
 18 17  1  0
 16 26  1  0
 16 17  1  0
  2 32  1  0
  2 33  1  0
  7 34  1  0
  8 35  1  0
 10 36  1  0
 11 37  1  0
 12 38  1  0
 13 39  1  0
 16 40  1  0
 17 41  1  0
 17 42  1  0
 18 43  1  0
 18 44  1  0
 20 45  1  0
 22 46  1  0
 23 47  1  0
 26 48  1  0
 27 49  1  0
A    1
C1
A    2
C3
A    3
C11
A    4
C12
A    5
C13
A    6
C16
A    7
C17
A    8
C18
A    9
C19
A   10
C20
A   11
C21
A   12
C26
A   13
C27
A   14
C28
A   15
N2
A   16
C4
A   17
C5
A   18
C6
A   19
N7
A   20
C8
A   21
C9
A   22
C10
A   23
N14
A   24
O15
A   25
O22
A   26
O23
A   27
N24
A   28
N25
A   29
F29
A   30
F30
A   31
CL
M  END
