5MOE_OQC_A_409
     RDKit          3D

 24 25  0  0  0  0  0  0  0  0999 V2000
   33.6930  149.8330  368.3620 C   0  0  0  0  0  0  0  0  0  0  0  0
   34.5220  150.3750  365.4440 Cl  0  0  0  0  0  0  0  0  0  0  0  0
   34.0810  148.8270  366.0860 C   0  0  0  0  0  0  0  0  0  0  0  0
   34.1150  147.7410  365.2320 C   0  0  0  0  0  0  0  0  0  0  0  0
   33.7470  146.4800  365.6820 C   0  0  0  0  0  0  0  0  0  0  0  0
   33.7860  145.3000  364.7520 C   0  0  0  0  0  0  0  0  0  0  0  0
   34.8020  144.3100  365.0810 N   0  0  0  0  0  0  0  0  0  0  0  0
   33.6910  148.6950  367.4130 C   0  0  0  0  0  0  0  0  0  0  0  0
   33.3200  147.4280  367.8560 C   0  0  0  0  0  0  0  0  0  0  0  0
   33.3500  146.3420  367.0000 C   0  0  0  0  0  0  0  0  0  0  0  0
   32.5320  150.2350  369.0750 C   0  0  0  0  0  0  0  0  0  0  0  0
   32.8800  151.2630  369.8540 C   0  0  0  0  0  0  0  0  0  0  0  0
   34.6730  150.6660  368.7710 C   0  0  0  0  0  0  0  0  0  0  0  0
   34.2000  151.5550  369.6910 O   0  0  0  0  0  0  0  0  0  0  0  0
   34.4358  147.8765  364.1886 H   0  0  0  0  0  0  0  0  0  0  0  0
   33.9821  145.6697  363.7347 H   0  0  0  0  0  0  0  0  0  0  0  0
   32.8132  144.7949  364.8437 H   0  0  0  0  0  0  0  0  0  0  0  0
   34.8844  144.2297  366.1046 H   0  0  0  0  0  0  0  0  0  0  0  0
   34.5332  143.3977  364.6856 H   0  0  0  0  0  0  0  0  0  0  0  0
   32.9993  147.2892  368.8990 H   0  0  0  0  0  0  0  0  0  0  0  0
   33.0529  145.3510  367.3738 H   0  0  0  0  0  0  0  0  0  0  0  0
   31.5318  149.7835  368.9997 H   0  0  0  0  0  0  0  0  0  0  0  0
   32.1973  151.7976  370.5309 H   0  0  0  0  0  0  0  0  0  0  0  0
   35.7120  150.6325  368.4113 H   0  0  0  0  0  0  0  0  0  0  0  0
  6  7  1  0
  6  5  1  0
  4  5  1  0
  4  3  2  0
  2  3  1  0
  5 10  2  0
  3  8  1  0
 10  9  1  0
  8  9  2  0
  8  1  1  0
  1 13  2  0
  1 11  1  0
 13 14  1  0
 11 12  2  0
 14 12  1  0
  4 15  1  0
  6 16  1  0
  6 17  1  0
  7 18  1  0
  7 19  1  0
  9 20  1  0
 10 21  1  0
 11 22  1  0
 12 23  1  0
 13 24  1  0
A    1
C7
A    2
CL
A    3
C5
A    4
C6
A    5
C1
A    6
C
A    7
N
A    8
C4
A    9
C3
A   10
C2
A   11
C10
A   12
C9
A   13
C8
A   14
O
M  END
