5MOW_BR9_A_401
     RDKit          3D

 15 15  0  0  0  0  0  0  0  0999 V2000
    8.9550  133.7990  364.5680 C   0  0  0  0  0  0  0  0  0  0  0  0
    9.0250  133.0640  363.4020 C   0  0  0  0  0  0  0  0  0  0  0  0
    7.8160  131.9820  361.6040 N   0  0  0  0  0  0  0  0  0  0  0  0
    7.8170  132.6680  362.8070 C   0  0  0  0  0  0  0  0  0  0  0  0
   10.5680  134.3510  365.4080 Br  0  0  0  0  0  0  0  0  0  0  0  0
    7.7390  134.1260  365.1270 C   0  0  0  0  0  0  0  0  0  0  0  0
    6.5770  133.7500  364.5720 N   0  0  0  0  0  0  0  0  0  0  0  0
    6.5970  133.0320  363.4220 C   0  0  0  0  0  0  0  0  0  0  0  0
    5.4280  132.7100  362.8710 N   0  0  0  0  0  0  0  0  0  0  0  0
    9.9939  132.7977  362.9545 H   0  0  0  0  0  0  0  0  0  0  0  0
    7.8145  130.9520  361.5985 H   0  0  0  0  0  0  0  0  0  0  0  0
    7.8168  132.5018  360.7148 H   0  0  0  0  0  0  0  0  0  0  0  0
    7.7203  134.7134  366.0569 H   0  0  0  0  0  0  0  0  0  0  0  0
    4.6202  132.4875  363.4700 H   0  0  0  0  0  0  0  0  0  0  0  0
    5.3318  132.6835  361.8458 H   0  0  0  0  0  0  0  0  0  0  0  0
  3  4  1  0
  4  2  1  0
  4  8  2  0
  9  8  1  0
  2  1  2  0
  8  7  1  0
  1  6  1  0
  1  5  1  0
  7  6  2  0
  2 10  1  0
  3 11  1  0
  3 12  1  0
  6 13  1  0
  9 14  1  0
  9 15  1  0
A    1
C2
A    2
C1
A    3
N
A    4
C
A    5
BR
A    6
C3
A    7
N1
A    8
C4
A    9
N2
M  END
