5MP8_RKN_A_406
     RDKit          3D

 31 32  0  0  0  0  0  0  0  0999 V2000
    5.9380  137.2940  350.0130 C   0  0  0  0  0  0  0  0  0  0  0  0
    5.6520  138.7690  349.8790 C   0  0  0  0  0  0  0  0  0  0  0  0
    4.6310  139.2270  349.0630 C   0  0  0  0  0  0  0  0  0  0  0  0
    4.3740  140.5790  348.9270 C   0  0  0  0  0  0  0  0  0  0  0  0
    5.1400  141.5230  349.6110 C   0  0  0  0  0  0  0  0  0  0  0  0
    6.1600  141.0530  350.4260 C   0  0  0  0  0  0  0  0  0  0  0  0
    5.6010  145.2420  349.1230 C   0  0  0  0  0  0  0  0  0  0  0  0
    4.3050  145.6980  349.1940 C   0  0  0  0  0  0  0  0  0  0  0  0
    3.5410  143.4510  349.5100 C   0  0  0  0  0  0  0  0  0  0  0  0
    7.1530  142.1740  351.2970 Cl  0  0  0  0  0  0  0  0  0  0  0  0
    6.4160  139.7040  350.5630 C   0  0  0  0  0  0  0  0  0  0  0  0
    5.8780  136.8390  351.4040 N   0  0  0  0  0  0  0  0  0  0  0  0
    4.4950  136.7500  351.8810 C   0  0  0  0  0  0  0  0  0  0  0  0
    4.8460  142.9730  349.4440 C   0  0  0  0  0  0  0  0  0  0  0  0
    3.2760  144.8030  349.3870 C   0  0  0  0  0  0  0  0  0  0  0  0
    5.8750  143.8920  349.2450 C   0  0  0  0  0  0  0  0  0  0  0  0
    5.1945  136.7350  349.4258 H   0  0  0  0  0  0  0  0  0  0  0  0
    6.9589  137.1149  349.6447 H   0  0  0  0  0  0  0  0  0  0  0  0
    4.0131  138.5020  348.5129 H   0  0  0  0  0  0  0  0  0  0  0  0
    3.5562  140.9138  348.2720 H   0  0  0  0  0  0  0  0  0  0  0  0
    6.4240  145.9553  348.9683 H   0  0  0  0  0  0  0  0  0  0  0  0
    4.0915  146.7727  349.0971 H   0  0  0  0  0  0  0  0  0  0  0  0
    2.7106  142.7457  349.6617 H   0  0  0  0  0  0  0  0  0  0  0  0
    7.2319  139.3672  351.2194 H   0  0  0  0  0  0  0  0  0  0  0  0
    6.3156  135.9090  351.4711 H   0  0  0  0  0  0  0  0  0  0  0  0
    6.3784  137.5229  351.9895 H   0  0  0  0  0  0  0  0  0  0  0  0
    4.4858  136.7494  352.9810 H   0  0  0  0  0  0  0  0  0  0  0  0
    3.9229  137.6132  351.5100 H   0  0  0  0  0  0  0  0  0  0  0  0
    4.0383  135.8206  351.5100 H   0  0  0  0  0  0  0  0  0  0  0  0
    2.2388  145.1650  349.4436 H   0  0  0  0  0  0  0  0  0  0  0  0
    6.9154  143.5399  349.1844 H   0  0  0  0  0  0  0  0  0  0  0  0
  4  3  1  0
  4  5  2  0
  3  2  2  0
  7  8  2  0
  7 16  1  0
  8 15  1  0
 16 14  2  0
 15  9  2  0
 14  9  1  0
 14  5  1  0
  5  6  1  0
  2  1  1  0
  2 11  1  0
  1 12  1  0
  6 11  2  0
  6 10  1  0
 12 13  1  0
  1 17  1  0
  1 18  1  0
  3 19  1  0
  4 20  1  0
  7 21  1  0
  8 22  1  0
  9 23  1  0
 11 24  1  0
 12 25  1  0
 12 26  1  0
 13 27  1  0
 13 28  1  0
 13 29  1  0
 15 30  1  0
 16 31  1  0
M  CHG  1  12   1
A    1
C1
A    2
C2
A    3
C3
A    4
C4
A    5
C5
A    6
C6
A    7
C10
A    8
C11
A    9
C13
A   10
CL
A   11
C7
A   12
N
A   13
C
A   14
C8
A   15
C12
A   16
C9
M  END
