5MPJ_J2P_A_403
     RDKit          3D

 34 35  0  0  0  0  0  0  0  0999 V2000
    5.6440  135.8090  355.3000 C   0  0  0  0  0  0  0  0  0  0  0  0
    4.3040  137.7840  354.7980 C   0  0  0  0  0  0  0  0  0  0  0  0
    4.3000  139.1530  354.1660 C   0  0  0  0  0  0  0  0  0  0  0  0
    3.2290  139.5750  353.3960 C   0  0  0  0  0  0  0  0  0  0  0  0
    3.1510  140.8730  352.9270 C   0  0  0  0  0  0  0  0  0  0  0  0
    4.1540  141.7970  353.2150 C   0  0  0  0  0  0  0  0  0  0  0  0
    5.2430  141.3520  353.9480 C   0  0  0  0  0  0  0  0  0  0  0  0
    5.3230  140.0570  354.4180 C   0  0  0  0  0  0  0  0  0  0  0  0
    3.9910  143.2130  352.7830 C   0  0  0  0  0  0  0  0  0  0  0  0
    2.9760  144.0090  353.3100 C   0  0  0  0  0  0  0  0  0  0  0  0
    2.8380  145.3290  352.9190 C   0  0  0  0  0  0  0  0  0  0  0  0
    3.7050  145.8750  351.9990 C   0  0  0  0  0  0  0  0  0  0  0  0
    4.7120  145.1030  351.4660 C   0  0  0  0  0  0  0  0  0  0  0  0
    4.8580  143.7820  351.8530 C   0  0  0  0  0  0  0  0  0  0  0  0
    6.5530  142.4340  354.2810 Cl  0  0  0  0  0  0  0  0  0  0  0  0
    5.4450  136.9610  354.4050 N   0  0  0  0  0  0  0  0  0  0  0  0
    6.0990  134.5960  354.5560 C   0  0  0  0  0  0  0  0  0  0  0  0
    6.4031  136.0702  356.0520 H   0  0  0  0  0  0  0  0  0  0  0  0
    4.6792  135.5756  355.7740 H   0  0  0  0  0  0  0  0  0  0  0  0
    4.3233  137.9058  355.8911 H   0  0  0  0  0  0  0  0  0  0  0  0
    3.3981  137.2659  354.4503 H   0  0  0  0  0  0  0  0  0  0  0  0
    2.4255  138.8641  353.1531 H   0  0  0  0  0  0  0  0  0  0  0  0
    2.2871  141.1803  352.3193 H   0  0  0  0  0  0  0  0  0  0  0  0
    6.2031  139.7389  354.9961 H   0  0  0  0  0  0  0  0  0  0  0  0
    2.2769  143.5833  354.0449 H   0  0  0  0  0  0  0  0  0  0  0  0
    2.0322  145.9449  353.3449 H   0  0  0  0  0  0  0  0  0  0  0  0
    3.5931  146.9251  351.6910 H   0  0  0  0  0  0  0  0  0  0  0  0
    5.4038  145.5375  350.7294 H   0  0  0  0  0  0  0  0  0  0  0  0
    5.6675  143.1750  351.4214 H   0  0  0  0  0  0  0  0  0  0  0  0
    5.2873  136.6129  353.4485 H   0  0  0  0  0  0  0  0  0  0  0  0
    6.2888  137.5492  354.4596 H   0  0  0  0  0  0  0  0  0  0  0  0
    6.3921  133.8147  355.2727 H   0  0  0  0  0  0  0  0  0  0  0  0
    5.2790  134.2246  353.9237 H   0  0  0  0  0  0  0  0  0  0  0  0
    6.9609  134.8555  353.9237 H   0  0  0  0  0  0  0  0  0  0  0  0
 13 14  2  0
 13 12  1  0
 14  9  1  0
 12 11  2  0
  9  6  1  0
  9 10  2  0
 11 10  1  0
  5  6  2  0
  5  4  1  0
  6  7  1  0
  4  3  2  0
  7 15  1  0
  7  8  2  0
  3  8  1  0
  3  2  1  0
 16  2  1  0
 16  1  1  0
 17  1  1  0
  1 18  1  0
  1 19  1  0
  2 20  1  0
  2 21  1  0
  4 22  1  0
  5 23  1  0
  8 24  1  0
 10 25  1  0
 11 26  1  0
 12 27  1  0
 13 28  1  0
 14 29  1  0
 16 30  1  0
 16 31  1  0
 17 32  1  0
 17 33  1  0
 17 34  1  0
M  CHG  1  16   1
A    1
C1
A    2
C2
A    3
C3
A    4
C4
A    5
C5
A    6
C6
A    7
C7
A    8
C8
A    9
C9
A   10
C10
A   11
C11
A   12
C12
A   13
C13
A   14
C14
A   15
CL
A   16
N
A   17
C
M  END
