5MQL_G65_A_302
     RDKit          3D

 66 70  0  0  0  0  0  0  0  0999 V2000
   37.9010   90.2680    6.4840 C   0  0  0  0  0  0  0  0  0  0  0  0
   39.4060   90.3760    6.7460 C   0  0  0  0  0  0  0  0  0  0  0  0
   40.2420   90.1540    5.5380 N   0  0  0  0  0  0  0  0  0  0  0  0
   41.6080   89.8650    5.9840 C   0  0  0  0  0  0  0  0  0  0  0  0
   39.8470   89.0170    4.6870 C   0  0  0  0  0  0  0  0  0  0  0  0
   38.3480   89.0140    4.4360 C   0  0  0  0  0  0  0  0  0  0  0  0
   37.5990   89.0460    5.7090 N   0  0  0  0  0  0  0  0  0  0  0  0
   36.1570   88.9580    5.3990 C   0  0  0  0  0  0  0  0  0  0  0  0
   35.5440   87.8730    6.0270 C   0  0  0  0  0  0  0  0  0  0  0  0
   34.7600   88.1050    7.1640 C   0  0  0  0  0  0  0  0  0  0  0  0
   34.1460   87.0360    7.8100 C   0  0  0  0  0  0  0  0  0  0  0  0
   35.7050   86.5750    5.5160 C   0  0  0  0  0  0  0  0  0  0  0  0
   35.1030   85.4970    6.1690 C   0  0  0  0  0  0  0  0  0  0  0  0
   34.3260   85.7380    7.3130 C   0  0  0  0  0  0  0  0  0  0  0  0
   33.7250   84.6720    7.9690 C   0  0  0  0  0  0  0  0  0  0  0  0
   32.9190   83.9490    7.3780 O   0  0  0  0  0  0  0  0  0  0  0  0
   34.1160   84.5310    9.2590 N   0  0  0  0  0  0  0  0  0  0  0  0
   33.6390   83.5320   10.0110 C   0  0  0  0  0  0  0  0  0  0  0  0
   34.0140   82.2050    9.7560 C   0  0  0  0  0  0  0  0  0  0  0  0
   32.8320   83.8190   11.1090 C   0  0  0  0  0  0  0  0  0  0  0  0
   32.3680   82.7650   11.8940 C   0  0  0  0  0  0  0  0  0  0  0  0
   32.7230   81.4370   11.6450 C   0  0  0  0  0  0  0  0  0  0  0  0
   32.1980   80.4980   12.5200 C   0  0  0  0  0  0  0  0  0  0  0  0
   33.5000   81.1430   10.5000 C   0  0  0  0  0  0  0  0  0  0  0  0
   33.9740   79.9030   10.2380 N   0  0  0  0  0  0  0  0  0  0  0  0
   33.2250   78.8500    9.8700 C   0  0  0  0  0  0  0  0  0  0  0  0
   33.6980   77.5920    9.8900 N   0  0  0  0  0  0  0  0  0  0  0  0
   31.5970   78.8040    9.4040 S   0  0  0  0  0  0  0  0  0  0  0  0
   31.5590   77.1090    9.2560 C   0  0  0  0  0  0  0  0  0  0  0  0
   32.7910   76.6310    9.5560 C   0  0  0  0  0  0  0  0  0  0  0  0
   33.1070   75.3120    9.5410 C   0  0  0  0  0  0  0  0  0  0  0  0
   32.1290   74.3100    9.6530 C   0  0  0  0  0  0  0  0  0  0  0  0
   32.4850   72.9560    9.6490 C   0  0  0  0  0  0  0  0  0  0  0  0
   33.8200   72.5590    9.5480 C   0  0  0  0  0  0  0  0  0  0  0  0
   34.8160   73.5390    9.4360 N   0  0  0  0  0  0  0  0  0  0  0  0
   34.4430   74.9020    9.4430 C   0  0  0  0  0  0  0  0  0  0  0  0
   37.5679   91.1490    5.9158 H   0  0  0  0  0  0  0  0  0  0  0  0
   37.3737   90.2183    7.4481 H   0  0  0  0  0  0  0  0  0  0  0  0
   39.6814   89.6251    7.5012 H   0  0  0  0  0  0  0  0  0  0  0  0
   39.5994   91.4044    7.0851 H   0  0  0  0  0  0  0  0  0  0  0  0
   41.6410   89.8580    7.0835 H   0  0  0  0  0  0  0  0  0  0  0  0
   41.9182   88.8813    5.6016 H   0  0  0  0  0  0  0  0  0  0  0  0
   42.2900   90.6387    5.6016 H   0  0  0  0  0  0  0  0  0  0  0  0
   40.1290   88.0790    5.1876 H   0  0  0  0  0  0  0  0  0  0  0  0
   40.3623   89.1100    3.7196 H   0  0  0  0  0  0  0  0  0  0  0  0
   38.0813   89.8986    3.8391 H   0  0  0  0  0  0  0  0  0  0  0  0
   38.0843   88.0922    3.8968 H   0  0  0  0  0  0  0  0  0  0  0  0
   35.6663   89.8837    5.7341 H   0  0  0  0  0  0  0  0  0  0  0  0
   36.0550   88.8187    4.3126 H   0  0  0  0  0  0  0  0  0  0  0  0
   34.6299   89.1286    7.5452 H   0  0  0  0  0  0  0  0  0  0  0  0
   33.5256   87.2082    8.7019 H   0  0  0  0  0  0  0  0  0  0  0  0
   36.3016   86.4082    4.6070 H   0  0  0  0  0  0  0  0  0  0  0  0
   35.2361   84.4723    5.7917 H   0  0  0  0  0  0  0  0  0  0  0  0
   34.7868   85.1992    9.6645 H   0  0  0  0  0  0  0  0  0  0  0  0
   34.7316   81.9963    8.9489 H   0  0  0  0  0  0  0  0  0  0  0  0
   32.5657   84.8582   11.3522 H   0  0  0  0  0  0  0  0  0  0  0  0
   31.6992   82.9864   12.7388 H   0  0  0  0  0  0  0  0  0  0  0  0
   32.3785   80.8209   13.5559 H   0  0  0  0  0  0  0  0  0  0  0  0
   31.1156   80.4024   12.3491 H   0  0  0  0  0  0  0  0  0  0  0  0
   32.6834   79.5258   12.3491 H   0  0  0  0  0  0  0  0  0  0  0  0
   34.9893   79.7546   10.3278 H   0  0  0  0  0  0  0  0  0  0  0  0
   30.6857   76.5059    8.9669 H   0  0  0  0  0  0  0  0  0  0  0  0
   31.0700   74.5927    9.7450 H   0  0  0  0  0  0  0  0  0  0  0  0
   31.6986   72.1908    9.7269 H   0  0  0  0  0  0  0  0  0  0  0  0
   34.0864   71.4918    9.5562 H   0  0  0  0  0  0  0  0  0  0  0  0
   35.2292   75.6678    9.3689 H   0  0  0  0  0  0  0  0  0  0  0  0
  6  5  1  0
  6  7  1  0
  5  3  1  0
  8  7  1  0
  8  9  1  0
 12  9  1  0
 12 13  2  0
  3  4  1  0
  3  2  1  0
  7  1  1  0
  9 10  2  0
 13 14  1  0
  1  2  1  0
 10 11  1  0
 14 11  2  0
 14 15  1  0
 16 15  2  0
 15 17  1  0
 29 28  1  0
 29 30  2  0
 17 18  1  0
 28 26  1  0
 35 36  2  0
 35 34  1  0
 36 31  1  0
 31 30  1  0
 31 32  2  0
 34 33  2  0
 30 27  1  0
 33 32  1  0
 19 18  2  0
 19 24  1  0
 26 27  2  0
 26 25  1  0
 18 20  1  0
 25 24  1  0
 24 22  2  0
 20 21  2  0
 22 21  1  0
 22 23  1  0
  1 37  1  0
  1 38  1  0
  2 39  1  0
  2 40  1  0
  4 41  1  0
  4 42  1  0
  4 43  1  0
  5 44  1  0
  5 45  1  0
  6 46  1  0
  6 47  1  0
  8 48  1  0
  8 49  1  0
 10 50  1  0
 11 51  1  0
 12 52  1  0
 13 53  1  0
 17 54  1  0
 19 55  1  0
 20 56  1  0
 21 57  1  0
 23 58  1  0
 23 59  1  0
 23 60  1  0
 25 61  1  0
 29 62  1  0
 32 63  1  0
 33 64  1  0
 34 65  1  0
 36 66  1  0
A    1
CBE
A    2
CBF
A    3
NBG
A    4
CBJ
A    5
CBH
A    6
CBI
A    7
NBD
A    8
CBC
A    9
CAZ
A   10
CBA
A   11
CBB
A   12
CAY
A   13
CAX
A   14
CAV
A   15
CAU
A   16
OAW
A   17
NAT
A   18
CAO
A   19
CAN
A   20
CAP
A   21
CAQ
A   22
CAR
A   23
CAS
A   24
CAM
A   25
NAL
A   26
CAJ
A   27
NAK
A   28
SAI
A   29
CAH
A   30
CAG
A   31
CAF
A   32
CAA
A   33
CAB
A   34
CAC
A   35
NAD
A   36
CAE
M  END
