5MQV_D5Q_A_301
     RDKit          3D

 65 69  0  0  0  0  0  0  0  0999 V2000
   36.0220    3.5890   32.5680 C   0  0  0  0  0  0  0  0  0  0  0  0
   35.2820    3.8910   33.7210 O   0  0  0  0  0  0  0  0  0  0  0  0
   34.6300    5.1310   33.7060 C   0  0  0  0  0  0  0  0  0  0  0  0
   33.2490    5.2070   33.7800 C   0  0  0  0  0  0  0  0  0  0  0  0
   32.6170    6.4460   33.7680 C   0  0  0  0  0  0  0  0  0  0  0  0
   33.3560    7.6140   33.6850 C   0  0  0  0  0  0  0  0  0  0  0  0
   32.7510    8.8830   33.6560 O   0  0  0  0  0  0  0  0  0  0  0  0
   31.4550    9.0610   34.1610 C   0  0  0  0  0  0  0  0  0  0  0  0
   34.7370    7.5240   33.5980 C   0  0  0  0  0  0  0  0  0  0  0  0
   35.3720    6.2960   33.6240 C   0  0  0  0  0  0  0  0  0  0  0  0
   35.6150    8.7740   33.5180 C   0  0  0  0  0  0  0  0  0  0  0  0
   35.6610    9.7330   32.5260 C   0  0  0  0  0  0  0  0  0  0  0  0
   36.5920   10.6350   32.8890 N   0  0  0  0  0  0  0  0  0  0  0  0
   36.9470   11.8100   32.1150 C   0  0  0  0  0  0  0  0  0  0  0  0
   37.1430   10.2740   34.0630 C   0  0  0  0  0  0  0  0  0  0  0  0
   36.5350    9.1110   34.4660 C   0  0  0  0  0  0  0  0  0  0  0  0
   38.2340   10.9770   34.8850 C   0  0  0  0  0  0  0  0  0  0  0  0
   38.3610   12.1520   34.8350 O   0  0  0  0  0  0  0  0  0  0  0  0
   39.0810   10.1380   35.7340 N   0  0  0  0  0  0  0  0  0  0  0  0
   40.1430   10.6790   36.5870 C   0  0  0  0  0  0  0  0  0  0  0  0
   40.0240   11.9570   37.1250 C   0  0  0  0  0  0  0  0  0  0  0  0
   41.0430   12.4500   37.9400 C   0  0  0  0  0  0  0  0  0  0  0  0
   42.1230   11.6170   38.2040 C   0  0  0  0  0  0  0  0  0  0  0  0
   42.1750   10.3450   37.6430 C   0  0  0  0  0  0  0  0  0  0  0  0
   41.1850    9.9250   36.8650 N   0  0  0  0  0  0  0  0  0  0  0  0
   40.9090   13.8570   38.5390 C   0  0  0  0  0  0  0  0  0  0  0  0
   41.8750   14.7640   38.8930 C   0  0  0  0  0  0  0  0  0  0  0  0
   41.2680   15.8280   39.3720 N   0  0  0  0  0  0  0  0  0  0  0  0
   39.9480   15.6110   39.3330 C   0  0  0  0  0  0  0  0  0  0  0  0
   39.7410   14.3920   38.8160 N   0  0  0  0  0  0  0  0  0  0  0  0
   38.6510   16.7620   39.8760 S   0  0  0  0  0  0  0  0  0  0  0  0
   37.3570   16.8080   38.6020 C   0  0  0  0  0  0  0  0  0  0  0  0
   43.3940   14.6620   38.7820 C   0  0  0  0  0  0  0  0  0  0  0  0
   44.1680   14.9780   39.8850 C   0  0  0  0  0  0  0  0  0  0  0  0
   45.5510   14.9080   39.8060 C   0  0  0  0  0  0  0  0  0  0  0  0
   46.1580   14.5290   38.6200 C   0  0  0  0  0  0  0  0  0  0  0  0
   47.5200   14.4590   38.5460 F   0  0  0  0  0  0  0  0  0  0  0  0
   45.3850   14.2220   37.5140 C   0  0  0  0  0  0  0  0  0  0  0  0
   43.9990   14.2920   37.5920 C   0  0  0  0  0  0  0  0  0  0  0  0
   37.0046    3.1880   32.8575 H   0  0  0  0  0  0  0  0  0  0  0  0
   35.4815    2.8395   31.9712 H   0  0  0  0  0  0  0  0  0  0  0  0
   36.1602    4.5027   31.9712 H   0  0  0  0  0  0  0  0  0  0  0  0
   32.6512    4.2862   33.8484 H   0  0  0  0  0  0  0  0  0  0  0  0
   31.5197    6.4985   33.8250 H   0  0  0  0  0  0  0  0  0  0  0  0
   31.4861    9.0567   35.2606 H   0  0  0  0  0  0  0  0  0  0  0  0
   31.0533   10.0227   33.8093 H   0  0  0  0  0  0  0  0  0  0  0  0
   30.8089    8.2432   33.8093 H   0  0  0  0  0  0  0  0  0  0  0  0
   36.4699    6.2451   33.5794 H   0  0  0  0  0  0  0  0  0  0  0  0
   35.0513    9.7558   31.6107 H   0  0  0  0  0  0  0  0  0  0  0  0
   37.1967   12.6364   32.7967 H   0  0  0  0  0  0  0  0  0  0  0  0
   37.8165   11.5824   31.4808 H   0  0  0  0  0  0  0  0  0  0  0  0
   36.0969   12.1019   31.4808 H   0  0  0  0  0  0  0  0  0  0  0  0
   36.7513    8.5516   35.3881 H   0  0  0  0  0  0  0  0  0  0  0  0
   38.9234    9.1201   35.7319 H   0  0  0  0  0  0  0  0  0  0  0  0
   39.1370   12.5710   36.9101 H   0  0  0  0  0  0  0  0  0  0  0  0
   42.9376   11.9634   38.8570 H   0  0  0  0  0  0  0  0  0  0  0  0
   43.0347    9.6888   37.8437 H   0  0  0  0  0  0  0  0  0  0  0  0
   38.8235   13.9500   38.6621 H   0  0  0  0  0  0  0  0  0  0  0  0
   36.3689   16.8431   39.0841 H   0  0  0  0  0  0  0  0  0  0  0  0
   37.4912   17.7019   37.9752 H   0  0  0  0  0  0  0  0  0  0  0  0
   37.4273   15.9068   37.9752 H   0  0  0  0  0  0  0  0  0  0  0  0
   43.6860   15.2849   40.8250 H   0  0  0  0  0  0  0  0  0  0  0  0
   46.1655   15.1533   40.6848 H   0  0  0  0  0  0  0  0  0  0  0  0
   45.8679   13.9223   36.5722 H   0  0  0  0  0  0  0  0  0  0  0  0
   43.3843   14.0543   36.7113 H   0  0  0  0  0  0  0  0  0  0  0  0
  1  2  1  0
  2  3  1  0
  3  4  2  0
  3 10  1  0
  4  5  1  0
  5  6  2  0
  6  7  1  0
  6  9  1  0
  7  8  1  0
  9 10  2  0
  9 11  1  0
 11 12  2  0
 11 16  1  0
 12 13  1  0
 13 14  1  0
 13 15  1  0
 15 16  2  0
 15 17  1  0
 17 18  2  0
 17 19  1  0
 19 20  1  0
 20 21  2  0
 20 25  1  0
 21 22  1  0
 22 23  2  0
 22 26  1  0
 23 24  1  0
 24 25  2  0
 26 27  2  0
 26 30  1  0
 27 28  1  0
 27 33  1  0
 28 29  2  0
 29 30  1  0
 29 31  1  0
 31 32  1  0
 33 34  2  0
 33 39  1  0
 34 35  1  0
 35 36  2  0
 36 37  1  0
 36 38  1  0
 38 39  2  0
  1 40  1  0
  1 41  1  0
  1 42  1  0
  4 43  1  0
  5 44  1  0
  8 45  1  0
  8 46  1  0
  8 47  1  0
 10 48  1  0
 12 49  1  0
 14 50  1  0
 14 51  1  0
 14 52  1  0
 16 53  1  0
 19 54  1  0
 21 55  1  0
 23 56  1  0
 24 57  1  0
 30 58  1  0
 32 59  1  0
 32 60  1  0
 32 61  1  0
 34 62  1  0
 35 63  1  0
 38 64  1  0
 39 65  1  0
A    1
C01
A    2
O02
A    3
C03
A    4
C04
A    5
C05
A    6
C06
A    7
O07
A    8
C08
A    9
C09
A   10
C10
A   11
C11
A   12
C12
A   13
N13
A   14
C14
A   15
C15
A   16
C16
A   17
C17
A   18
O18
A   19
N19
A   20
C20
A   21
C21
A   22
C22
A   23
C23
A   24
C24
A   25
N25
A   26
C26
A   27
C27
A   28
N28
A   29
C29
A   30
N30
A   31
S31
A   32
C32
A   33
C33
A   34
C34
A   35
C35
A   36
C36
A   37
F37
A   38
C38
A   39
C39
M  END
