5MRD_S26_A_401
     RDKit          3D

 34 37  0  0  0  0  0  0  0  0999 V2000
  -14.8070   39.4740  -13.0940 C   0  0  0  0  0  0  0  0  0  0  0  0
   -9.1340   39.1710   -7.1540 C   0  0  0  0  0  0  0  0  0  0  0  0
  -13.6460   40.0250  -13.6270 C   0  0  0  0  0  0  0  0  0  0  0  0
  -12.4790   40.1150  -12.8770 C   0  0  0  0  0  0  0  0  0  0  0  0
  -11.8610   39.0710   -9.4430 C   0  0  0  0  0  0  0  0  0  0  0  0
  -10.2910   39.0010   -6.2590 C   0  0  0  0  0  0  0  0  0  0  0  0
   -7.7040   39.2880   -6.7430 C   0  0  0  0  0  0  0  0  0  0  0  0
  -10.3070   38.9080   -4.7810 O   0  0  0  0  0  0  0  0  0  0  0  0
  -11.4370   38.9360   -7.1880 C   0  0  0  0  0  0  0  0  0  0  0  0
  -12.6480   38.7890   -6.8090 O   0  0  0  0  0  0  0  0  0  0  0  0
   -9.4740   39.2120   -8.5930 C   0  0  0  0  0  0  0  0  0  0  0  0
   -8.9280   38.0310   -9.3090 C   0  0  0  0  0  0  0  0  0  0  0  0
   -7.7900   38.0640  -10.1110 C   0  0  0  0  0  0  0  0  0  0  0  0
   -7.5220   36.7960  -10.6560 C   0  0  0  0  0  0  0  0  0  0  0  0
   -8.4290   35.7730  -10.3400 C   0  0  0  0  0  0  0  0  0  0  0  0
   -9.6480   36.4520   -9.2900 S   0  0  0  0  0  0  0  0  0  0  0  0
  -10.9580   39.0510   -8.4480 N   0  0  0  0  0  0  0  0  0  0  0  0
  -13.5400   38.5830   -9.4120 S   0  0  0  0  0  0  0  0  0  0  0  0
  -13.7050   39.0880  -11.0070 C   0  0  0  0  0  0  0  0  0  0  0  0
  -11.4570   39.6360  -10.6140 N   0  0  0  0  0  0  0  0  0  0  0  0
  -12.4510   39.6640  -11.5640 C   0  0  0  0  0  0  0  0  0  0  0  0
  -16.2610   39.3900  -14.1400 Cl  0  0  0  0  0  0  0  0  0  0  0  0
  -14.8570   39.0030  -11.7830 C   0  0  0  0  0  0  0  0  0  0  0  0
  -13.6516   40.3968  -14.6623 H   0  0  0  0  0  0  0  0  0  0  0  0
  -11.5722   40.5461  -13.3264 H   0  0  0  0  0  0  0  0  0  0  0  0
   -7.6373   39.2935   -5.6450 H   0  0  0  0  0  0  0  0  0  0  0  0
   -7.1371   38.4332   -7.1405 H   0  0  0  0  0  0  0  0  0  0  0  0
   -7.2836   40.2235   -7.1405 H   0  0  0  0  0  0  0  0  0  0  0  0
  -10.1673   39.7202   -4.2324 H   0  0  0  0  0  0  0  0  0  0  0  0
   -9.1048   40.0882   -9.1462 H   0  0  0  0  0  0  0  0  0  0  0  0
   -7.1819   38.9623  -10.2937 H   0  0  0  0  0  0  0  0  0  0  0  0
   -6.6465   36.6152  -11.2970 H   0  0  0  0  0  0  0  0  0  0  0  0
   -8.3808   34.7314  -10.6904 H   0  0  0  0  0  0  0  0  0  0  0  0
  -15.7834   38.5751  -11.3723 H   0  0  0  0  0  0  0  0  0  0  0  0
 22  1  1  0
  3  1  2  0
  3  4  1  0
  1 23  1  0
  4 21  2  0
 23 19  2  0
 21 19  1  0
 21 20  1  0
 19 18  1  0
 14 15  2  0
 14 13  1  0
 20  5  2  0
 15 16  1  0
 13 12  2  0
  5 18  1  0
  5 17  1  0
 12 16  1  0
 12 11  1  0
 11 17  1  0
 11  2  1  0
 17  9  1  0
  9 10  2  0
  9  6  1  0
  2  7  1  0
  2  6  2  0
  6  8  1  0
  3 24  1  0
  4 25  1  0
  7 26  1  0
  7 27  1  0
  7 28  1  0
  8 29  1  0
 11 30  1  0
 13 31  1  0
 14 32  1  0
 15 33  1  0
 23 34  1  0
A    1
C4
A    2
C14
A    3
C5
A    4
C6
A    5
C8
A    6
C13
A    7
C23
A    8
O22
A    9
C12
A   10
O21
A   11
C15
A   12
C16
A   13
C20
A   14
C19
A   15
C18
A   16
S17
A   17
N11
A   18
S9
A   19
C2
A   20
N7
A   21
C1
A   22
CL
A   23
C3
M  END
