5MRI_Q9Y_A_807
     RDKit          3D

 31 31  0  0  0  0  0  0  0  0999 V2000
  -13.5750  -75.5650   33.6390 C   0  0  0  0  0  0  0  0  0  0  0  0
   -9.0950  -78.8010   29.9540 C   0  0  0  0  0  0  0  0  0  0  0  0
  -10.0210  -79.9310   30.4820 C   0  0  0  0  0  0  0  0  0  0  0  0
   -9.2000  -81.0480   31.1570 C   0  0  0  0  0  0  0  0  0  0  0  0
  -11.1350  -79.3260   31.4450 C   0  0  0  0  0  0  0  0  0  0  0  0
  -11.6150  -80.2450   32.5390 C   0  0  0  0  0  0  0  0  0  0  0  0
  -10.4990  -78.6180   35.5020 C   0  0  0  0  0  0  0  0  0  0  0  0
  -11.3730  -78.7150   34.4340 C   0  0  0  0  0  0  0  0  0  0  0  0
  -12.5810  -77.7860   34.1050 C   0  0  0  0  0  0  0  0  0  0  0  0
  -11.0130  -79.7940   33.7230 N   0  0  0  0  0  0  0  0  0  0  0  0
   -9.9430  -80.3410   34.3120 N   0  0  0  0  0  0  0  0  0  0  0  0
   -9.6350  -79.6270   35.4050 N   0  0  0  0  0  0  0  0  0  0  0  0
  -12.4150  -76.3510   33.9410 N   0  0  0  0  0  0  0  0  0  0  0  0
  -10.4900  -77.6560   36.5100 O   0  0  0  0  0  0  0  0  0  0  0  0
  -13.7130  -78.2720   33.9840 O   0  0  0  0  0  0  0  0  0  0  0  0
  -14.0526  -75.2414   34.5756 H   0  0  0  0  0  0  0  0  0  0  0  0
  -13.2775  -74.6817   33.0548 H   0  0  0  0  0  0  0  0  0  0  0  0
  -14.2851  -76.1688   33.0548 H   0  0  0  0  0  0  0  0  0  0  0  0
   -8.6530  -78.2616   30.8047 H   0  0  0  0  0  0  0  0  0  0  0  0
   -8.2935  -79.2399   29.3417 H   0  0  0  0  0  0  0  0  0  0  0  0
   -9.6828  -78.1013   29.3417 H   0  0  0  0  0  0  0  0  0  0  0  0
  -10.5405  -80.3950   29.6306 H   0  0  0  0  0  0  0  0  0  0  0  0
   -9.2737  -80.9478   32.2499 H   0  0  0  0  0  0  0  0  0  0  0  0
   -9.5940  -82.0285   30.8513 H   0  0  0  0  0  0  0  0  0  0  0  0
   -8.1466  -80.9646   30.8513 H   0  0  0  0  0  0  0  0  0  0  0  0
  -10.7205  -78.4235   31.9180 H   0  0  0  0  0  0  0  0  0  0  0  0
  -12.0107  -79.1304   30.8087 H   0  0  0  0  0  0  0  0  0  0  0  0
  -12.7105  -80.1949   32.6254 H   0  0  0  0  0  0  0  0  0  0  0  0
  -11.3491  -81.2913   32.3282 H   0  0  0  0  0  0  0  0  0  0  0  0
  -11.4889  -75.9110   34.0392 H   0  0  0  0  0  0  0  0  0  0  0  0
  -10.4926  -77.9345   37.4600 H   0  0  0  0  0  0  0  0  0  0  0  0
  2  3  1  0
  3  4  1  0
  3  5  1  0
  5  6  1  0
  6 10  1  0
  1 13  1  0
 10 11  1  0
 10  8  1  0
 13  9  1  0
 15  9  2  0
  9  8  1  0
 11 12  2  0
  8  7  2  0
 12  7  1  0
  7 14  1  0
  1 16  1  0
  1 17  1  0
  1 18  1  0
  2 19  1  0
  2 20  1  0
  2 21  1  0
  3 22  1  0
  4 23  1  0
  4 24  1  0
  4 25  1  0
  5 26  1  0
  5 27  1  0
  6 28  1  0
  6 29  1  0
 13 30  1  0
 14 31  1  0
A    1
C15
A    2
C01
A    3
C02
A    4
C03
A    5
C04
A    6
C05
A    7
C09
A    8
C11
A    9
C12
A   10
N06
A   11
N07
A   12
N08
A   13
N14
A   14
O10
A   15
O13
M  END
