5MRO_Q9P_A_401
     RDKit          3D

 27 29  0  0  0  0  0  0  0  0999 V2000
    6.0120   21.1690  -18.7320 N   0  0  0  0  0  0  0  0  0  0  0  0
    5.2520   20.2600  -19.3400 C   0  0  0  0  0  0  0  0  0  0  0  0
    4.1720   22.7150  -18.6530 C   0  0  0  0  0  0  0  0  0  0  0  0
    3.3850   21.7180  -19.2820 C   0  0  0  0  0  0  0  0  0  0  0  0
    4.4370   18.5440  -20.3110 C   0  0  0  0  0  0  0  0  0  0  0  0
    3.6860   25.0160  -19.1800 C   0  0  0  0  0  0  0  0  0  0  0  0
    4.1290   27.3710  -19.6330 C   0  0  0  0  0  0  0  0  0  0  0  0
    3.3360   25.9640  -21.4010 C   0  0  0  0  0  0  0  0  0  0  0  0
    2.1980   21.9100  -19.5640 O   0  0  0  0  0  0  0  0  0  0  0  0
    3.9760   20.5480  -19.6010 N   0  0  0  0  0  0  0  0  0  0  0  0
    3.4840   19.4580  -20.2120 N   0  0  0  0  0  0  0  0  0  0  0  0
    5.5320   19.0420  -19.7760 N   0  0  0  0  0  0  0  0  0  0  0  0
    5.5120   22.3630  -18.3770 C   0  0  0  0  0  0  0  0  0  0  0  0
    6.6210   23.3950  -17.6160 Cl  0  0  0  0  0  0  0  0  0  0  0  0
    3.6380   23.9460  -18.2390 C   0  0  0  0  0  0  0  0  0  0  0  0
    3.2900   24.8830  -20.5190 C   0  0  0  0  0  0  0  0  0  0  0  0
    3.7560   27.2150  -20.9660 C   0  0  0  0  0  0  0  0  0  0  0  0
    4.0900   26.2890  -18.7560 C   0  0  0  0  0  0  0  0  0  0  0  0
    4.3323   17.5455  -20.7606 H   0  0  0  0  0  0  0  0  0  0  0  0
    4.4569   28.3562  -19.2699 H   0  0  0  0  0  0  0  0  0  0  0  0
    3.0369   25.8241  -22.4503 H   0  0  0  0  0  0  0  0  0  0  0  0
    1.5290   22.0182  -18.8423 H   0  0  0  0  0  0  0  0  0  0  0  0
    4.1919   24.2649  -17.3437 H   0  0  0  0  0  0  0  0  0  0  0  0
    2.5673   23.7548  -18.0745 H   0  0  0  0  0  0  0  0  0  0  0  0
    2.9359   23.9067  -20.8815 H   0  0  0  0  0  0  0  0  0  0  0  0
    3.7933   28.0665  -21.6614 H   0  0  0  0  0  0  0  0  0  0  0  0
    4.3832   26.4376  -17.7063 H   0  0  0  0  0  0  0  0  0  0  0  0
  8 17  1  0
  8 16  2  0
 17  7  2  0
 16  6  1  0
  5 11  2  0
  5 12  1  0
 11 10  1  0
 12  2  2  0
  7 18  1  0
 10  2  1  0
 10  4  1  0
  9  4  1  0
  2  1  1  0
  4  3  2  0
  6 18  2  0
  6 15  1  0
  1 13  2  0
  3 13  1  0
  3 15  1  0
 13 14  1  0
  5 19  1  0
  7 20  1  0
  8 21  1  0
  9 22  1  0
 15 23  1  0
 15 24  1  0
 16 25  1  0
 17 26  1  0
 18 27  1  0
A    1
N3
A    2
C4
A    3
C6
A    4
C7
A    5
C10
A    6
C13
A    7
C15
A    8
C17
A    9
O11
A   10
N8
A   11
N9
A   12
N5
A   13
C2
A   14
CL1
A   15
C12
A   16
C18
A   17
C16
A   18
C14
M  END
