5MT4_M7O_A_301
     RDKit          3D

 34 35  0  0  0  0  0  0  0  0999 V2000
    9.2030   11.1740    7.6500 C   0  0  0  0  0  0  0  0  0  0  0  0
    7.8040    8.1040   10.5280 C   0  0  0  0  0  0  0  0  0  0  0  0
    7.0020    8.5070    9.4420 C   0  0  0  0  0  0  0  0  0  0  0  0
    7.4190    9.4860    8.5160 C   0  0  0  0  0  0  0  0  0  0  0  0
    9.3700   10.9640    5.1690 C   0  0  0  0  0  0  0  0  0  0  0  0
    9.7480   10.4200    2.7440 C   0  0  0  0  0  0  0  0  0  0  0  0
    9.1980    9.4460    1.9060 C   0  0  0  0  0  0  0  0  0  0  0  0
    9.1250    9.6700    0.4940 C   0  0  0  0  0  0  0  0  0  0  0  0
    9.5850   10.8820   -0.0810 C   0  0  0  0  0  0  0  0  0  0  0  0
   10.1540   11.8510    0.7610 C   0  0  0  0  0  0  0  0  0  0  0  0
   10.2250   11.6370    2.1520 C   0  0  0  0  0  0  0  0  0  0  0  0
    9.6350   10.5000    6.4240 N   0  0  0  0  0  0  0  0  0  0  0  0
    8.6830   10.1110    8.6620 C   0  0  0  0  0  0  0  0  0  0  0  0
    9.4730    9.7520    9.7720 C   0  0  0  0  0  0  0  0  0  0  0  0
    9.0290    8.7440   10.7010 C   0  0  0  0  0  0  0  0  0  0  0  0
    8.8000   12.0920    5.0010 O   0  0  0  0  0  0  0  0  0  0  0  0
    9.8340   10.1550    4.1530 N   0  0  0  0  0  0  0  0  0  0  0  0
    8.6500    8.1570    2.4540 C   0  0  0  0  0  0  0  0  0  0  0  0
    8.7590    7.7740    3.6180 O   0  0  0  0  0  0  0  0  0  0  0  0
    7.9730    7.4170    1.5800 O   0  0  0  0  0  0  0  0  0  0  0  0
   10.0524   11.7168    8.0904 H   0  0  0  0  0  0  0  0  0  0  0  0
    8.3984   11.8867    7.4163 H   0  0  0  0  0  0  0  0  0  0  0  0
    7.4741    7.3113   11.2156 H   0  0  0  0  0  0  0  0  0  0  0  0
    6.0142    8.0410    9.3114 H   0  0  0  0  0  0  0  0  0  0  0  0
    6.7621    9.7650    7.6790 H   0  0  0  0  0  0  0  0  0  0  0  0
    8.7049    8.8885   -0.1562 H   0  0  0  0  0  0  0  0  0  0  0  0
    9.4979   11.0592   -1.1631 H   0  0  0  0  0  0  0  0  0  0  0  0
   10.5473   12.7842    0.3315 H   0  0  0  0  0  0  0  0  0  0  0  0
   10.6544   12.4181    2.7966 H   0  0  0  0  0  0  0  0  0  0  0  0
   10.1701    9.6246    6.5145 H   0  0  0  0  0  0  0  0  0  0  0  0
   10.4418   10.2479    9.9316 H   0  0  0  0  0  0  0  0  0  0  0  0
    9.6654    8.4766   11.5575 H   0  0  0  0  0  0  0  0  0  0  0  0
   10.2872    9.2733    4.4324 H   0  0  0  0  0  0  0  0  0  0  0  0
    8.5808    8.4001    4.3639 H   0  0  0  0  0  0  0  0  0  0  0  0
  9  8  1  0
  9 10  2  0
  8  7  2  0
 10 11  1  0
 20 18  2  0
  7 18  1  0
  7  6  1  0
 11  6  2  0
 18 19  1  0
  6 17  1  0
 17  5  1  0
 16  5  2  0
  5 12  1  0
 12  1  1  0
  1 13  1  0
  4 13  2  0
  4  3  1  0
 13 14  1  0
  3  2  2  0
 14 15  2  0
  2 15  1  0
  1 21  1  0
  1 22  1  0
  2 23  1  0
  3 24  1  0
  4 25  1  0
  8 26  1  0
  9 27  1  0
 10 28  1  0
 11 29  1  0
 12 30  1  0
 14 31  1  0
 15 32  1  0
 17 33  1  0
 19 34  1  0
A    1
C3
A    2
C11
A    3
C13
A    4
C15
A    5
C17
A    6
C21
A    7
C22
A    8
C23
A    9
C25
A   10
C27
A   11
C29
A   12
N1
A   13
C6
A   14
C7
A   15
C9
A   16
O18
A   17
N19
A   18
C31
A   19
O32
A   20
O33
M  END
