5MVS_5JJ_A_402
     RDKit          3D

 42 44  0  0  0  0  0  0  0  0999 V2000
   30.6650  -14.4060   11.1700 C   0  0  0  0  0  0  0  0  0  0  0  0
   31.9950  -14.6810   11.5400 C   0  0  0  0  0  0  0  0  0  0  0  0
   33.0270  -13.8450   11.0780 C   0  0  0  0  0  0  0  0  0  0  0  0
   33.9470   -8.4570    8.0750 C   0  0  0  0  0  0  0  0  0  0  0  0
   33.4560   -7.4970    8.9860 C   0  0  0  0  0  0  0  0  0  0  0  0
   33.1200   -6.1930    8.5790 C   0  0  0  0  0  0  0  0  0  0  0  0
   33.2440   -5.8330    7.2320 C   0  0  0  0  0  0  0  0  0  0  0  0
   33.7520   -6.7610    6.3010 C   0  0  0  0  0  0  0  0  0  0  0  0
   34.0760   -8.0620    6.7260 C   0  0  0  0  0  0  0  0  0  0  0  0
   35.7320  -10.0820    8.5080 C   0  0  0  0  0  0  0  0  0  0  0  0
   36.2630   -9.7350    9.8230 C   0  0  0  0  0  0  0  0  0  0  0  0
   36.6620   -9.5000   10.9340 C   0  0  0  0  0  0  0  0  0  0  0  0
   37.1910   -9.2500   12.2740 C   0  0  0  0  0  0  0  0  0  0  0  0
   36.3290   -8.2020   13.0000 C   0  0  0  0  0  0  0  0  0  0  0  0
   32.7150  -12.7230   10.2450 C   0  0  0  0  0  0  0  0  0  0  0  0
   31.3570  -12.4910    9.9380 C   0  0  0  0  0  0  0  0  0  0  0  0
   30.4000  -13.3660   10.3460 N   0  0  0  0  0  0  0  0  0  0  0  0
   33.6500  -11.7440    9.8080 C   0  0  0  0  0  0  0  0  0  0  0  0
   33.3090  -10.6180    8.9990 C   0  0  0  0  0  0  0  0  0  0  0  0
   31.9170  -10.4390    8.7240 C   0  0  0  0  0  0  0  0  0  0  0  0
   30.9630  -11.3630    9.1790 C   0  0  0  0  0  0  0  0  0  0  0  0
   34.2840   -9.7290    8.5140 N   0  0  0  0  0  0  0  0  0  0  0  0
   34.6930   -9.1680    5.5420 Cl  0  0  0  0  0  0  0  0  0  0  0  0
   33.3470   -7.9230   10.6730 Cl  0  0  0  0  0  0  0  0  0  0  0  0
   34.2900  -14.1900   11.4550 N   0  0  0  0  0  0  0  0  0  0  0  0
   29.8450  -15.0336   11.5490 H   0  0  0  0  0  0  0  0  0  0  0  0
   32.2250  -15.5421   12.1847 H   0  0  0  0  0  0  0  0  0  0  0  0
   32.7614   -5.4594    9.3161 H   0  0  0  0  0  0  0  0  0  0  0  0
   32.9454   -4.8275    6.9007 H   0  0  0  0  0  0  0  0  0  0  0  0
   33.8941   -6.4700    5.2497 H   0  0  0  0  0  0  0  0  0  0  0  0
   35.8572  -11.1590    8.3225 H   0  0  0  0  0  0  0  0  0  0  0  0
   36.2647   -9.5379    7.7142 H   0  0  0  0  0  0  0  0  0  0  0  0
   37.1828  -10.1880   12.8485 H   0  0  0  0  0  0  0  0  0  0  0  0
   38.2199   -8.8706   12.1881 H   0  0  0  0  0  0  0  0  0  0  0  0
   36.4344   -8.3302   14.0874 H   0  0  0  0  0  0  0  0  0  0  0  0
   36.6619   -7.1928   12.7158 H   0  0  0  0  0  0  0  0  0  0  0  0
   35.2746   -8.3339   12.7158 H   0  0  0  0  0  0  0  0  0  0  0  0
   34.7005  -11.8617   10.1121 H   0  0  0  0  0  0  0  0  0  0  0  0
   31.5883   -9.5626    8.1462 H   0  0  0  0  0  0  0  0  0  0  0  0
   29.8996  -11.2090    8.9435 H   0  0  0  0  0  0  0  0  0  0  0  0
   34.5293  -14.2554   12.4547 H   0  0  0  0  0  0  0  0  0  0  0  0
   35.0055  -14.3854   10.7403 H   0  0  0  0  0  0  0  0  0  0  0  0
 23  9  1  0
  8  9  2  0
  8  7  1  0
  9  4  1  0
  7  6  2  0
  4 22  1  0
  4  5  2  0
 10 22  1  0
 10 11  1  0
 22 19  1  0
  6  5  1  0
 20 19  2  0
 20 21  1  0
  5 24  1  0
 19 18  1  0
 21 16  2  0
 18 15  2  0
 11 12  3  0
 16 15  1  0
 16 17  1  0
 15  3  1  0
 17  1  2  0
 12 13  1  0
  3 25  1  0
  3  2  2  0
  1  2  1  0
 13 14  1  0
  1 26  1  0
  2 27  1  0
  6 28  1  0
  7 29  1  0
  8 30  1  0
 10 31  1  0
 10 32  1  0
 13 33  1  0
 13 34  1  0
 14 35  1  0
 14 36  1  0
 14 37  1  0
 18 38  1  0
 20 39  1  0
 21 40  1  0
 25 41  1  0
 25 42  1  0
A    1
C1
A    2
C2
A    3
C3
A    4
C12
A    5
C13
A    6
C14
A    7
C15
A    8
C16
A    9
C17
A   10
C20
A   11
C21
A   12
C22
A   13
C23
A   14
C25
A   15
C4
A   16
C5
A   17
N6
A   18
C7
A   19
C8
A   20
C9
A   21
C10
A   22
N11
A   23
CL1
A   24
CL2
A   25
N24
M  END
