5MW6_RC0_A_201
     RDKit          3D

 35 37  0  0  0  0  0  0  0  0999 V2000
   18.8390   20.4310    9.6120 N   0  0  0  0  0  0  0  0  0  0  0  0
   19.1510   19.2200   11.5770 N   0  0  0  0  0  0  0  0  0  0  0  0
   19.6320   18.1930   12.2630 C   0  0  0  0  0  0  0  0  0  0  0  0
   17.7880   21.2160   10.0120 C   0  0  0  0  0  0  0  0  0  0  0  0
   17.5450   22.0920    9.0180 C   0  0  0  0  0  0  0  0  0  0  0  0
   18.4670   21.8350    7.9980 C   0  0  0  0  0  0  0  0  0  0  0  0
   18.8090   19.1380   14.3350 C   0  0  0  0  0  0  0  0  0  0  0  0
   17.6480   21.1660   15.8610 C   0  0  0  0  0  0  0  0  0  0  0  0
   17.0150   21.1640   11.3120 C   0  0  0  0  0  0  0  0  0  0  0  0
   17.1300   19.8760   15.9100 C   0  0  0  0  0  0  0  0  0  0  0  0
   18.7630   21.4330   15.0750 C   0  0  0  0  0  0  0  0  0  0  0  0
   18.5400   22.5360    6.6870 C   0  0  0  0  0  0  0  0  0  0  0  0
   19.4110   19.3630   10.2880 C   0  0  0  0  0  0  0  0  0  0  0  0
   19.2430   20.8550    8.3490 N   0  0  0  0  0  0  0  0  0  0  0  0
   20.0970   18.4350    9.6100 N   0  0  0  0  0  0  0  0  0  0  0  0
   20.3630   17.2070   11.5780 C   0  0  0  0  0  0  0  0  0  0  0  0
   19.3780   18.0700   13.6180 N   0  0  0  0  0  0  0  0  0  0  0  0
   20.5860   17.3560   10.2180 C   0  0  0  0  0  0  0  0  0  0  0  0
   21.0110   15.8150   12.3870 Cl  0  0  0  0  0  0  0  0  0  0  0  0
   16.9510   22.4270   16.8380 Cl  0  0  0  0  0  0  0  0  0  0  0  0
   19.3560   20.4250   14.3270 C   0  0  0  0  0  0  0  0  0  0  0  0
   17.7060   18.8690   15.1470 C   0  0  0  0  0  0  0  0  0  0  0  0
   16.7647   22.8672    9.0099 H   0  0  0  0  0  0  0  0  0  0  0  0
   17.7166   21.2112   12.1579 H   0  0  0  0  0  0  0  0  0  0  0  0
   16.3230   22.0176   11.3615 H   0  0  0  0  0  0  0  0  0  0  0  0
   16.4436   20.2254   11.3615 H   0  0  0  0  0  0  0  0  0  0  0  0
   16.2651   19.6539   16.5524 H   0  0  0  0  0  0  0  0  0  0  0  0
   19.1787   22.4510   15.0455 H   0  0  0  0  0  0  0  0  0  0  0  0
   18.6526   23.6172    6.8551 H   0  0  0  0  0  0  0  0  0  0  0  0
   19.4040   22.1614    6.1185 H   0  0  0  0  0  0  0  0  0  0  0  0
   17.6174   22.3474    6.1185 H   0  0  0  0  0  0  0  0  0  0  0  0
   19.6070   17.1913   14.1041 H   0  0  0  0  0  0  0  0  0  0  0  0
   21.1535   16.6008    9.6544 H   0  0  0  0  0  0  0  0  0  0  0  0
   20.2544   20.6382   13.7292 H   0  0  0  0  0  0  0  0  0  0  0  0
   17.2899   17.8514   15.1827 H   0  0  0  0  0  0  0  0  0  0  0  0
 12  6  1  0
  6 14  2  0
  6  5  1  0
 14  1  1  0
  5  4  2  0
 15 18  2  0
 15 13  1  0
  1  4  1  0
  1 13  1  0
  4  9  1  0
 18 16  1  0
 13  2  2  0
  2  3  1  0
 16  3  2  0
 16 19  1  0
  3 17  1  0
 17  7  1  0
 21  7  2  0
 21 11  1  0
  7 22  1  0
 11  8  2  0
 22 10  2  0
  8 10  1  0
  8 20  1  0
  5 23  1  0
  9 24  1  0
  9 25  1  0
  9 26  1  0
 10 27  1  0
 11 28  1  0
 12 29  1  0
 12 30  1  0
 12 31  1  0
 17 32  1  0
 18 33  1  0
 21 34  1  0
 22 35  1  0
A    1
N1
A    2
N3
A    3
C5
A    4
C6
A    5
C7
A    6
C10
A    7
C13
A    8
C15
A    9
C17
A   10
C20
A   11
C21
A   12
C22
A   13
C2
A   14
N4
A   15
N8
A   16
C9
A   17
N11
A   18
C12
A   19
CL4
A   20
CL6
A   21
C18
A   22
C19
M  END
