5MXV_K3T_A_301
     RDKit          3D

 27 29  0  0  0  0  0  0  0  0999 V2000
   -8.7990  -26.5060    2.8380 C   0  0  0  0  0  0  0  0  0  0  0  0
   -6.7530  -26.1390    3.9290 C   0  0  0  0  0  0  0  0  0  0  0  0
   -7.2490  -26.7240    5.0690 C   0  0  0  0  0  0  0  0  0  0  0  0
   -8.5190  -27.2020    5.0700 C   0  0  0  0  0  0  0  0  0  0  0  0
   -9.3020  -27.0950    3.9330 C   0  0  0  0  0  0  0  0  0  0  0  0
  -10.6120  -27.5540    3.8520 C   0  0  0  0  0  0  0  0  0  0  0  0
  -11.2960  -27.2980    2.6920 C   0  0  0  0  0  0  0  0  0  0  0  0
  -12.6550  -27.7470    2.1690 C   0  0  0  0  0  0  0  0  0  0  0  0
  -13.8090  -28.3870    2.8590 N   0  0  0  0  0  0  0  0  0  0  0  0
  -15.0190  -28.9380    2.2050 C   0  0  0  0  0  0  0  0  0  0  0  0
  -15.1600  -28.8470    0.7160 N   0  0  0  0  0  0  0  0  0  0  0  0
  -17.0740  -30.4100    1.3540 C   0  0  0  0  0  0  0  0  0  0  0  0
  -16.4350  -29.6930    2.5850 S   0  0  0  0  0  0  0  0  0  0  0  0
  -12.6290  -27.6250    1.0260 O   0  0  0  0  0  0  0  0  0  0  0  0
  -10.0640  -26.5900    1.7230 S   0  0  0  0  0  0  0  0  0  0  0  0
   -7.5280  -26.0110    2.8160 C   0  0  0  0  0  0  0  0  0  0  0  0
   -5.5160  -25.6450    3.8750 F   0  0  0  0  0  0  0  0  0  0  0  0
  -11.3050  -28.3780    5.2430 Cl  0  0  0  0  0  0  0  0  0  0  0  0
  -16.5810  -29.5400    0.1500 C   0  0  0  0  0  0  0  0  0  0  0  0
   -6.6238  -26.8039    5.9705 H   0  0  0  0  0  0  0  0  0  0  0  0
   -8.9270  -27.6751    5.9753 H   0  0  0  0  0  0  0  0  0  0  0  0
  -13.7617  -28.4527    3.8858 H   0  0  0  0  0  0  0  0  0  0  0  0
  -18.1720  -30.4081    1.4206 H   0  0  0  0  0  0  0  0  0  0  0  0
  -16.7887  -31.4691    1.2710 H   0  0  0  0  0  0  0  0  0  0  0  0
   -7.1356  -25.5169    1.9149 H   0  0  0  0  0  0  0  0  0  0  0  0
  -16.3874  -30.1663   -0.7333 H   0  0  0  0  0  0  0  0  0  0  0  0
  -17.3228  -28.7926   -0.1681 H   0  0  0  0  0  0  0  0  0  0  0  0
 19 12  1  0
  1  5  1  0
  1 15  1  0
  1 16  2  0
  2  3  2  0
  2 16  1  0
  2 17  1  0
  3  4  1  0
  4  5  2  0
  5  6  1  0
  6  7  2  0
  6 18  1  0
  7  8  1  0
  7 15  1  0
  8  9  1  0
  8 14  2  0
  9 10  1  0
 10 11  2  0
 10 13  1  0
 12 13  1  0
 11 19  1  0
  3 20  1  0
  4 21  1  0
  9 22  1  0
 12 23  1  0
 12 24  1  0
 16 25  1  0
 19 26  1  0
 19 27  1  0
A    1
C15
A    2
C17
A    3
C01
A    4
C02
A    5
C03
A    6
C04
A    7
C05
A    8
C06
A    9
N07
A   10
C08
A   11
N09
A   12
C11
A   13
S12
A   14
O13
A   15
S14
A   16
C16
A   17
F18
A   18
CL1
A   19
C10
M  END
