5MZC_8EQ_A_503
     RDKit          3D

 31 32  0  0  0  0  0  0  0  0999 V2000
    9.4920  -33.5080   48.1600 C   0  0  0  0  0  0  0  0  0  0  0  0
    8.3610  -31.5900   48.1720 C   0  0  0  0  0  0  0  0  0  0  0  0
    8.4040  -31.0440   45.7480 C   0  0  0  0  0  0  0  0  0  0  0  0
    9.5370  -30.0300   45.7270 C   0  0  0  0  0  0  0  0  0  0  0  0
    9.4030  -28.9980   44.6440 C   0  0  0  0  0  0  0  0  0  0  0  0
    9.6730  -34.0030   45.8040 C   0  0  0  0  0  0  0  0  0  0  0  0
   10.8970  -36.2160   44.8800 Cl  0  0  0  0  0  0  0  0  0  0  0  0
   10.3480  -35.1650   46.1460 C   0  0  0  0  0  0  0  0  0  0  0  0
   10.6130  -35.4990   47.4780 C   0  0  0  0  0  0  0  0  0  0  0  0
   11.3640  -36.6330   47.6710 O   0  0  0  0  0  0  0  0  0  0  0  0
   12.0650  -36.8590   48.9060 C   0  0  0  0  0  0  0  0  0  0  0  0
   12.8420  -38.1180   48.7140 C   0  0  0  0  0  0  0  0  0  0  0  0
    9.2400  -33.1820   46.8420 C   0  0  0  0  0  0  0  0  0  0  0  0
   10.1830  -34.6580   48.4980 C   0  0  0  0  0  0  0  0  0  0  0  0
    8.5340  -31.9780   46.8760 N   0  0  0  0  0  0  0  0  0  0  0  0
    7.8030  -30.6060   48.6080 O   0  0  0  0  0  0  0  0  0  0  0  0
    8.9600  -32.5340   48.9830 O   0  0  0  0  0  0  0  0  0  0  0  0
    8.5820  -29.0580   43.7500 O   0  0  0  0  0  0  0  0  0  0  0  0
   10.2820  -28.0400   44.7600 O   0  0  0  0  0  0  0  0  0  0  0  0
    7.4473  -30.5084   45.8365 H   0  0  0  0  0  0  0  0  0  0  0  0
    8.4446  -31.6244   44.8145 H   0  0  0  0  0  0  0  0  0  0  0  0
   10.4836  -30.5699   45.5772 H   0  0  0  0  0  0  0  0  0  0  0  0
    9.5071  -29.4943   46.6873 H   0  0  0  0  0  0  0  0  0  0  0  0
    9.4866  -33.7397   44.7524 H   0  0  0  0  0  0  0  0  0  0  0  0
   12.7436  -36.0199   49.1193 H   0  0  0  0  0  0  0  0  0  0  0  0
   11.3698  -36.9403   49.7546 H   0  0  0  0  0  0  0  0  0  0  0  0
   13.1031  -38.5410   49.6953 H   0  0  0  0  0  0  0  0  0  0  0  0
   12.2336  -38.8423   48.1526 H   0  0  0  0  0  0  0  0  0  0  0  0
   13.7622  -37.8989   48.1526 H   0  0  0  0  0  0  0  0  0  0  0  0
   10.3877  -34.9016   49.5510 H   0  0  0  0  0  0  0  0  0  0  0  0
   10.5638  -27.7329   45.6580 H   0  0  0  0  0  0  0  0  0  0  0  0
 18  5  2  0
  5 19  1  0
  5  4  1  0
  7  8  1  0
  4  3  1  0
  3 15  1  0
  6  8  1  0
  6 13  2  0
  8  9  2  0
 13 15  1  0
 13  1  1  0
 15  2  1  0
  9 10  1  0
  9 14  1  0
 10 11  1  0
  1 14  2  0
  1 17  1  0
  2 16  2  0
  2 17  1  0
 12 11  1  0
  3 20  1  0
  3 21  1  0
  4 22  1  0
  4 23  1  0
  6 24  1  0
 11 25  1  0
 11 26  1  0
 12 27  1  0
 12 28  1  0
 12 29  1  0
 14 30  1  0
 19 31  1  0
A    1
C4
A    2
C5
A    3
C6
A    4
C7
A    5
C8
A    6
C10
A    7
CL
A    8
C11
A    9
C2
A   10
O
A   11
C1
A   12
C
A   13
C9
A   14
C3
A   15
N
A   16
O2
A   17
O1
A   18
O4
A   19
O3
M  END
