5N18_8HZ_A_501
     RDKit          3D

 44 47  0  0  0  0  0  0  0  0999 V2000
   59.3060    7.2580   33.4790 C   0  0  0  0  0  0  0  0  0  0  0  0
   58.9900    5.8120   33.6140 C   0  0  0  0  0  0  0  0  0  0  0  0
   60.8350    5.3570   32.1690 C   0  0  0  0  0  0  0  0  0  0  0  0
   59.7800    4.8940   32.9410 C   0  0  0  0  0  0  0  0  0  0  0  0
   59.3080    9.4610   33.6580 C   0  0  0  0  0  0  0  0  0  0  0  0
   58.9170   10.8430   34.0380 C   0  0  0  0  0  0  0  0  0  0  0  0
   57.5630   11.1120   34.1700 C   0  0  0  0  0  0  0  0  0  0  0  0
   57.1310   12.3830   34.5180 C   0  0  0  0  0  0  0  0  0  0  0  0
   59.8590   11.8410   34.2490 C   0  0  0  0  0  0  0  0  0  0  0  0
   59.4240   13.1170   34.5990 C   0  0  0  0  0  0  0  0  0  0  0  0
   62.6320    9.6480   32.2790 C   0  0  0  0  0  0  0  0  0  0  0  0
   63.4600   10.3380   31.4020 C   0  0  0  0  0  0  0  0  0  0  0  0
   63.2000    8.8380   33.2610 C   0  0  0  0  0  0  0  0  0  0  0  0
   64.5810    8.7100   33.3540 C   0  0  0  0  0  0  0  0  0  0  0  0
   65.4020    9.4050   32.4740 C   0  0  0  0  0  0  0  0  0  0  0  0
   66.9000    9.2780   32.5690 C   0  0  0  0  0  0  0  0  0  0  0  0
   57.6280   14.6320   35.0730 O   0  0  0  0  0  0  0  0  0  0  0  0
   58.0650   13.3870   34.7330 C   0  0  0  0  0  0  0  0  0  0  0  0
   60.3900    8.9670   32.7900 C   0  0  0  0  0  0  0  0  0  0  0  0
   61.2820    9.7790   32.1610 N   0  0  0  0  0  0  0  0  0  0  0  0
   64.8430   10.2180   31.4970 C   0  0  0  0  0  0  0  0  0  0  0  0
   58.6810    8.3320   34.0370 N   0  0  0  0  0  0  0  0  0  0  0  0
   60.3510    7.6330   32.7070 N   0  0  0  0  0  0  0  0  0  0  0  0
   61.0980    6.7210   32.0660 C   0  0  0  0  0  0  0  0  0  0  0  0
   57.8330    5.3600   34.4640 C   0  0  0  0  0  0  0  0  0  0  0  0
   61.4716    4.6386   31.6317 H   0  0  0  0  0  0  0  0  0  0  0  0
   59.5739    3.8162   33.0177 H   0  0  0  0  0  0  0  0  0  0  0  0
   56.8274   10.3125   33.9977 H   0  0  0  0  0  0  0  0  0  0  0  0
   56.0565   12.5939   34.6228 H   0  0  0  0  0  0  0  0  0  0  0  0
   60.9326   11.6271   34.1414 H   0  0  0  0  0  0  0  0  0  0  0  0
   60.1594   13.9168   34.7707 H   0  0  0  0  0  0  0  0  0  0  0  0
   63.0193   10.9832   30.6277 H   0  0  0  0  0  0  0  0  0  0  0  0
   62.5518    8.2971   33.9662 H   0  0  0  0  0  0  0  0  0  0  0  0
   65.0234    8.0596   34.1230 H   0  0  0  0  0  0  0  0  0  0  0  0
   67.1995    9.2526   33.6272 H   0  0  0  0  0  0  0  0  0  0  0  0
   67.2213    8.3494   32.0746 H   0  0  0  0  0  0  0  0  0  0  0  0
   67.3731   10.1393   32.0746 H   0  0  0  0  0  0  0  0  0  0  0  0
   57.5401   14.8824   36.0268 H   0  0  0  0  0  0  0  0  0  0  0  0
   60.9162   10.5338   31.5631 H   0  0  0  0  0  0  0  0  0  0  0  0
   65.4926   10.7665   30.7990 H   0  0  0  0  0  0  0  0  0  0  0  0
   61.9394    7.0591   31.4434 H   0  0  0  0  0  0  0  0  0  0  0  0
   58.0967    5.4630   35.5270 H   0  0  0  0  0  0  0  0  0  0  0  0
   56.9516    5.9799   34.2431 H   0  0  0  0  0  0  0  0  0  0  0  0
   57.6052    4.3068   34.2431 H   0  0  0  0  0  0  0  0  0  0  0  0
 12 21  2  0
 12 11  1  0
 21 15  1  0
 24  3  2  0
 24 23  1  0
 20 11  1  0
 20 19  1  0
  3  4  1  0
 11 13  2  0
 15 16  1  0
 15 14  2  0
 23 19  1  0
 23  1  1  0
 19  5  2  0
  4  2  2  0
 13 14  1  0
  1  2  1  0
  1 22  2  0
  2 25  1  0
  5 22  1  0
  5  6  1  0
  6  7  2  0
  6  9  1  0
  7  8  1  0
  9 10  2  0
  8 18  2  0
 10 18  1  0
 18 17  1  0
  3 26  1  0
  4 27  1  0
  7 28  1  0
  8 29  1  0
  9 30  1  0
 10 31  1  0
 12 32  1  0
 13 33  1  0
 14 34  1  0
 16 35  1  0
 16 36  1  0
 16 37  1  0
 17 38  1  0
 20 39  1  0
 21 40  1  0
 24 41  1  0
 25 42  1  0
 25 43  1  0
 25 44  1  0
A    1
C1
A    2
C2
A    3
C5
A    4
C6
A    5
C7
A    6
C8
A    7
C9
A    8
C10
A    9
C11
A   10
C12
A   11
C14
A   12
C15
A   13
C17
A   14
C18
A   15
C19
A   16
C20
A   17
O
A   18
C13
A   19
C
A   20
N2
A   21
C16
A   22
N1
A   23
N
A   24
C4
A   25
C3
M  END
