5N2X_8KN_E_409
     RDKit          3D

 65 65  0  0  0  0  0  0  0  0999 V2000
    8.1470   44.3850   -1.5530 C   0  0  0  0  0  0  0  0  0  0  0  0
    8.3960   42.6610   -5.5430 C   0  0  0  0  0  0  0  0  0  0  0  0
   12.1430   40.0590   -6.8560 C   0  0  0  0  0  0  0  0  0  0  0  0
   12.7970   40.3930   -9.2290 C   0  0  0  0  0  0  0  0  0  0  0  0
   13.7890   40.3440  -11.4120 C   0  0  0  0  0  0  0  0  0  0  0  0
   15.3030   40.5170  -11.5300 C   0  0  0  0  0  0  0  0  0  0  0  0
   15.9970   39.9130  -12.5760 C   0  0  0  0  0  0  0  0  0  0  0  0
   17.3820   41.4010  -10.7100 C   0  0  0  0  0  0  0  0  0  0  0  0
   16.0150   41.2480  -10.5950 C   0  0  0  0  0  0  0  0  0  0  0  0
   10.1200   38.2090   -6.5570 O   0  0  0  0  0  0  0  0  0  0  0  0
   11.4750   38.5910   -5.9930 P   0  0  0  0  0  0  0  0  0  0  0  0
   11.2320   39.1090   -4.4140 N   0  0  0  0  0  0  0  0  0  0  0  0
   10.0960   38.6420   -3.6280 C   0  0  0  0  0  0  0  0  0  0  0  0
   10.4510   38.7110   -2.1420 C   0  0  0  0  0  0  0  0  0  0  0  0
    9.3860   38.1610   -1.2030 C   0  0  0  0  0  0  0  0  0  0  0  0
    9.2410   36.6450   -1.3330 C   0  0  0  0  0  0  0  0  0  0  0  0
    9.6720   38.5720    0.2320 C   0  0  0  0  0  0  0  0  0  0  0  0
    8.8450   39.4550   -3.8880 C   0  0  0  0  0  0  0  0  0  0  0  0
    9.0950   40.8130   -4.1480 N   0  0  0  0  0  0  0  0  0  0  0  0
    8.0060   41.7280   -4.4090 C   0  0  0  0  0  0  0  0  0  0  0  0
    7.5020   43.4150   -6.0090 O   0  0  0  0  0  0  0  0  0  0  0  0
    9.5840   42.6530   -5.9800 O   0  0  0  0  0  0  0  0  0  0  0  0
    7.7340   39.0030   -3.8460 O   0  0  0  0  0  0  0  0  0  0  0  0
   12.4390   37.4370   -6.1230 O   0  0  0  0  0  0  0  0  0  0  0  0
   12.7810   39.6140   -8.0530 N   0  0  0  0  0  0  0  0  0  0  0  0
   13.4660   39.6900  -10.2160 O   0  0  0  0  0  0  0  0  0  0  0  0
   17.3780   40.0530  -12.6950 C   0  0  0  0  0  0  0  0  0  0  0  0
   18.0770   40.8160  -11.7650 C   0  0  0  0  0  0  0  0  0  0  0  0
   12.3320   41.4820   -9.3300 O   0  0  0  0  0  0  0  0  0  0  0  0
    7.6070   42.4940   -3.1410 C   0  0  0  0  0  0  0  0  0  0  0  0
    8.6540   43.5270   -2.7260 C   0  0  0  0  0  0  0  0  0  0  0  0
    8.9960   45.5680   -1.3340 N   0  0  0  0  0  0  0  0  0  0  0  0
    7.1219   44.7181   -1.7725 H   0  0  0  0  0  0  0  0  0  0  0  0
    8.1761   43.7697   -0.6416 H   0  0  0  0  0  0  0  0  0  0  0  0
   12.8731   40.5708   -6.2118 H   0  0  0  0  0  0  0  0  0  0  0  0
   11.3330   40.7642   -7.0939 H   0  0  0  0  0  0  0  0  0  0  0  0
   13.3086   41.3334  -11.4257 H   0  0  0  0  0  0  0  0  0  0  0  0
   13.4310   39.7394  -12.2583 H   0  0  0  0  0  0  0  0  0  0  0  0
   15.4466   39.3169  -13.3188 H   0  0  0  0  0  0  0  0  0  0  0  0
   17.9283   41.9916   -9.9598 H   0  0  0  0  0  0  0  0  0  0  0  0
   15.4853   41.7125   -9.7503 H   0  0  0  0  0  0  0  0  0  0  0  0
   12.0777   38.8462   -3.8880 H   0  0  0  0  0  0  0  0  0  0  0  0
    9.8833   37.6053   -3.9279 H   0  0  0  0  0  0  0  0  0  0  0  0
   11.3756   38.1362   -1.9844 H   0  0  0  0  0  0  0  0  0  0  0  0
   10.5557   39.7786   -1.8987 H   0  0  0  0  0  0  0  0  0  0  0  0
    8.4212   38.5994   -1.4980 H   0  0  0  0  0  0  0  0  0  0  0  0
    9.1978   36.1935   -0.3309 H   0  0  0  0  0  0  0  0  0  0  0  0
    8.3163   36.4107   -1.8809 H   0  0  0  0  0  0  0  0  0  0  0  0
   10.1045   36.2397   -1.8809 H   0  0  0  0  0  0  0  0  0  0  0  0
    9.1817   37.8674    0.9199 H   0  0  0  0  0  0  0  0  0  0  0  0
   10.7579   38.5600    0.4074 H   0  0  0  0  0  0  0  0  0  0  0  0
    9.2834   39.5860    0.4074 H   0  0  0  0  0  0  0  0  0  0  0  0
   10.0646   41.1606   -4.1527 H   0  0  0  0  0  0  0  0  0  0  0  0
    7.1172   41.1582   -4.7180 H   0  0  0  0  0  0  0  0  0  0  0  0
   10.3445   42.6479   -5.3462 H   0  0  0  0  0  0  0  0  0  0  0  0
   12.7013   37.1230   -5.2215 H   0  0  0  0  0  0  0  0  0  0  0  0
   13.2447   38.6943   -8.0582 H   0  0  0  0  0  0  0  0  0  0  0  0
   17.9136   39.5622  -13.5210 H   0  0  0  0  0  0  0  0  0  0  0  0
   19.1639   40.9551  -11.8619 H   0  0  0  0  0  0  0  0  0  0  0  0
    6.6548   43.0123   -3.3272 H   0  0  0  0  0  0  0  0  0  0  0  0
    7.5172   41.7630   -2.3239 H   0  0  0  0  0  0  0  0  0  0  0  0
    9.5725   43.0052   -2.4194 H   0  0  0  0  0  0  0  0  0  0  0  0
    8.8539   44.1873   -3.5827 H   0  0  0  0  0  0  0  0  0  0  0  0
    9.1097   45.7265   -0.3226 H   0  0  0  0  0  0  0  0  0  0  0  0
    9.9193   45.4122   -1.7631 H   0  0  0  0  0  0  0  0  0  0  0  0
 27  7  1  0
 27 28  2  0
  7  6  2  0
 28  8  1  0
  6  5  1  0
  6  9  1  0
  5 26  1  0
  8  9  2  0
 26  4  1  0
 29  4  2  0
  4 25  1  0
 25  3  1  0
  3 11  1  0
 10 11  2  0
 24 11  1  0
 21  2  2  0
 11 12  1  0
 22  2  1  0
  2 20  1  0
 12 13  1  0
 20 19  1  0
 20 30  1  0
 19 18  1  0
 18 23  2  0
 18 13  1  0
 13 14  1  0
 30 31  1  0
 31  1  1  0
 14 15  1  0
  1 32  1  0
 16 15  1  0
 15 17  1  0
  1 33  1  0
  1 34  1  0
  3 35  1  0
  3 36  1  0
  5 37  1  0
  5 38  1  0
  7 39  1  0
  8 40  1  0
  9 41  1  0
 12 42  1  0
 13 43  1  0
 14 44  1  0
 14 45  1  0
 15 46  1  0
 16 47  1  0
 16 48  1  0
 16 49  1  0
 17 50  1  0
 17 51  1  0
 17 52  1  0
 19 53  1  0
 20 54  1  0
 22 55  1  0
 24 56  1  0
 25 57  1  0
 27 58  1  0
 28 59  1  0
 30 60  1  0
 30 61  1  0
 31 62  1  0
 31 63  1  0
 32 64  1  0
 32 65  1  0
A    1
C10
A    2
C11
A    3
C12
A    4
C13
A    5
C14
A    6
C15
A    7
C16
A    8
C19
A    9
C20
A   10
O01
A   11
P01
A   12
N01
A   13
C01
A   14
C02
A   15
C03
A   16
C04
A   17
C05
A   18
C06
A   19
N02
A   20
C07
A   21
O02
A   22
O03
A   23
O04
A   24
O05
A   25
N04
A   26
O06
A   27
C17
A   28
C18
A   29
O07
A   30
C08
A   31
C09
A   32
N03
M  END
