5N31_8LB_E_410
     RDKit          3D

 66 66  0  0  0  0  0  0  0  0999 V2000
   38.2680   36.4180   -1.2300 C   0  0  0  0  0  0  0  0  0  0  0  0
   39.4010   35.4180   -1.4240 C   0  0  0  0  0  0  0  0  0  0  0  0
   38.0210   37.6650   -5.5160 C   0  0  0  0  0  0  0  0  0  0  0  0
   34.2140   40.2690   -6.8740 C   0  0  0  0  0  0  0  0  0  0  0  0
   33.5670   39.9290   -9.2700 C   0  0  0  0  0  0  0  0  0  0  0  0
   32.5910   39.9590  -11.4470 C   0  0  0  0  0  0  0  0  0  0  0  0
   31.0640   39.8150  -11.5760 C   0  0  0  0  0  0  0  0  0  0  0  0
   28.2970   39.5350  -11.7900 C   0  0  0  0  0  0  0  0  0  0  0  0
   28.9890   40.3060  -12.7160 C   0  0  0  0  0  0  0  0  0  0  0  0
   30.3710   40.4490  -12.6040 C   0  0  0  0  0  0  0  0  0  0  0  0
   36.2650   42.1410   -6.6150 O   0  0  0  0  0  0  0  0  0  0  0  0
   34.9140   41.7440   -6.0280 P   0  0  0  0  0  0  0  0  0  0  0  0
   35.1260   41.2330   -4.4300 N   0  0  0  0  0  0  0  0  0  0  0  0
   36.2660   41.7430   -3.6750 C   0  0  0  0  0  0  0  0  0  0  0  0
   35.9030   41.6490   -2.2010 C   0  0  0  0  0  0  0  0  0  0  0  0
   36.9760   42.1790   -1.2570 C   0  0  0  0  0  0  0  0  0  0  0  0
   36.6900   41.7820    0.1880 C   0  0  0  0  0  0  0  0  0  0  0  0
   37.1470   43.6900   -1.3620 C   0  0  0  0  0  0  0  0  0  0  0  0
   37.4980   40.8990   -3.9380 C   0  0  0  0  0  0  0  0  0  0  0  0
   37.2650   39.5320   -4.1790 N   0  0  0  0  0  0  0  0  0  0  0  0
   38.3780   38.6450   -4.4070 C   0  0  0  0  0  0  0  0  0  0  0  0
   36.8320   37.6300   -5.9630 O   0  0  0  0  0  0  0  0  0  0  0  0
   38.9370   36.9190   -5.9620 O   0  0  0  0  0  0  0  0  0  0  0  0
   38.6220   41.3430   -3.8850 O   0  0  0  0  0  0  0  0  0  0  0  0
   33.9240   42.8970   -6.1520 O   0  0  0  0  0  0  0  0  0  0  0  0
   33.5810   40.7000   -8.0940 N   0  0  0  0  0  0  0  0  0  0  0  0
   32.9240   40.6370  -10.2680 O   0  0  0  0  0  0  0  0  0  0  0  0
   30.3650   39.0660  -10.6390 C   0  0  0  0  0  0  0  0  0  0  0  0
   28.9930   38.9220  -10.7470 C   0  0  0  0  0  0  0  0  0  0  0  0
   34.0630   38.8570   -9.3470 O   0  0  0  0  0  0  0  0  0  0  0  0
   38.8460   37.9630   -3.1320 C   0  0  0  0  0  0  0  0  0  0  0  0
   37.7870   37.0600   -2.5470 C   0  0  0  0  0  0  0  0  0  0  0  0
   38.6187   37.2169   -0.5601 H   0  0  0  0  0  0  0  0  0  0  0  0
   37.4158   35.8658   -0.8071 H   0  0  0  0  0  0  0  0  0  0  0  0
   39.7727   35.0900   -0.4420 H   0  0  0  0  0  0  0  0  0  0  0  0
   39.0298   34.5477   -1.9850 H   0  0  0  0  0  0  0  0  0  0  0  0
   40.2185   35.8944   -1.9850 H   0  0  0  0  0  0  0  0  0  0  0  0
   33.4722   39.7844   -6.2221 H   0  0  0  0  0  0  0  0  0  0  0  0
   35.0139   39.5480   -7.0985 H   0  0  0  0  0  0  0  0  0  0  0  0
   33.0484   38.9587  -11.4303 H   0  0  0  0  0  0  0  0  0  0  0  0
   32.9668   40.5349  -12.3056 H   0  0  0  0  0  0  0  0  0  0  0  0
   27.2079   39.4086  -11.8784 H   0  0  0  0  0  0  0  0  0  0  0  0
   28.4477   40.8021  -13.5351 H   0  0  0  0  0  0  0  0  0  0  0  0
   30.9175   41.0664  -13.3321 H   0  0  0  0  0  0  0  0  0  0  0  0
   34.2763   41.4985   -3.9119 H   0  0  0  0  0  0  0  0  0  0  0  0
   36.4878   42.7784   -3.9728 H   0  0  0  0  0  0  0  0  0  0  0  0
   34.9819   42.2271   -2.0353 H   0  0  0  0  0  0  0  0  0  0  0  0
   35.7826   40.5796   -1.9732 H   0  0  0  0  0  0  0  0  0  0  0  0
   37.9219   41.7137   -1.5713 H   0  0  0  0  0  0  0  0  0  0  0  0
   37.1954   42.4836    0.8679 H   0  0  0  0  0  0  0  0  0  0  0  0
   35.6054   41.8131    0.3690 H   0  0  0  0  0  0  0  0  0  0  0  0
   37.0629   40.7631    0.3690 H   0  0  0  0  0  0  0  0  0  0  0  0
   37.1962   44.1245   -0.3526 H   0  0  0  0  0  0  0  0  0  0  0  0
   38.0766   43.9170   -1.9046 H   0  0  0  0  0  0  0  0  0  0  0  0
   36.2917   44.1190   -1.9046 H   0  0  0  0  0  0  0  0  0  0  0  0
   36.3021   39.1666   -4.1924 H   0  0  0  0  0  0  0  0  0  0  0  0
   39.2439   39.2362   -4.7399 H   0  0  0  0  0  0  0  0  0  0  0  0
   39.5309   36.4353   -5.3347 H   0  0  0  0  0  0  0  0  0  0  0  0
   33.6603   43.2041   -5.2485 H   0  0  0  0  0  0  0  0  0  0  0  0
   33.1154   41.6187   -8.1056 H   0  0  0  0  0  0  0  0  0  0  0  0
   30.9033   38.5858   -9.8086 H   0  0  0  0  0  0  0  0  0  0  0  0
   28.4470   38.3202  -10.0056 H   0  0  0  0  0  0  0  0  0  0  0  0
   39.7386   37.3615   -3.3590 H   0  0  0  0  0  0  0  0  0  0  0  0
   39.0687   38.7460   -2.3922 H   0  0  0  0  0  0  0  0  0  0  0  0
   36.8810   37.6513   -2.3482 H   0  0  0  0  0  0  0  0  0  0  0  0
   37.5753   36.2576   -3.2691 H   0  0  0  0  0  0  0  0  0  0  0  0
  9 10  1  0
  9  8  2  0
 10  7  2  0
  8 29  1  0
  7  6  1  0
  7 28  1  0
  6 27  1  0
 29 28  2  0
 27  5  1  0
 30  5  2  0
  5 26  1  0
 26  4  1  0
  4 12  1  0
 11 12  2  0
 25 12  1  0
 12 13  1  0
 22  3  2  0
 23  3  1  0
  3 21  1  0
 13 14  1  0
 21 20  1  0
 21 31  1  0
 20 19  1  0
 19 24  2  0
 19 14  1  0
 14 15  1  0
 31 32  1  0
 32  1  1  0
 15 16  1  0
  2  1  1  0
 18 16  1  0
 16 17  1  0
  1 33  1  0
  1 34  1  0
  2 35  1  0
  2 36  1  0
  2 37  1  0
  4 38  1  0
  4 39  1  0
  6 40  1  0
  6 41  1  0
  8 42  1  0
  9 43  1  0
 10 44  1  0
 13 45  1  0
 14 46  1  0
 15 47  1  0
 15 48  1  0
 16 49  1  0
 17 50  1  0
 17 51  1  0
 17 52  1  0
 18 53  1  0
 18 54  1  0
 18 55  1  0
 20 56  1  0
 21 57  1  0
 23 58  1  0
 25 59  1  0
 26 60  1  0
 28 61  1  0
 29 62  1  0
 31 63  1  0
 31 64  1  0
 32 65  1  0
 32 66  1  0
A    1
C10
A    2
C11
A    3
C12
A    4
C13
A    5
C14
A    6
C15
A    7
C16
A    8
C19
A    9
C20
A   10
C21
A   11
O01
A   12
P01
A   13
N01
A   14
C01
A   15
C02
A   16
C03
A   17
C04
A   18
C05
A   19
C06
A   20
N02
A   21
C07
A   22
O02
A   23
O03
A   24
O04
A   25
O05
A   26
N04
A   27
O06
A   28
C17
A   29
C18
A   30
O07
A   31
C08
A   32
C09
M  END
