5N3V_8L5_E_406
     RDKit          3D

 53 53  0  0  0  0  0  0  0  0999 V2000
   13.8800   40.1420  -11.4850 C   0  0  0  0  0  0  0  0  0  0  0  0
   15.3740   40.3830  -11.5530 C   0  0  0  0  0  0  0  0  0  0  0  0
   16.0130   41.1740  -10.6130 C   0  0  0  0  0  0  0  0  0  0  0  0
   17.3710   41.3960  -10.6910 C   0  0  0  0  0  0  0  0  0  0  0  0
   18.1170   40.8330  -11.7080 C   0  0  0  0  0  0  0  0  0  0  0  0
   17.5050   40.0270  -12.6360 C   0  0  0  0  0  0  0  0  0  0  0  0
   16.1390   39.7990  -12.5690 C   0  0  0  0  0  0  0  0  0  0  0  0
   10.1270   38.1670   -6.5960 O   0  0  0  0  0  0  0  0  0  0  0  0
   11.4740   38.5570   -6.0250 P   0  0  0  0  0  0  0  0  0  0  0  0
   11.2080   39.1480   -4.4890 N   0  0  0  0  0  0  0  0  0  0  0  0
   10.1000   38.6240   -3.6870 C   0  0  0  0  0  0  0  0  0  0  0  0
   10.4850   38.7000   -2.2050 C   0  0  0  0  0  0  0  0  0  0  0  0
    9.4330   38.1540   -1.2500 C   0  0  0  0  0  0  0  0  0  0  0  0
    9.3080   36.6370   -1.3700 C   0  0  0  0  0  0  0  0  0  0  0  0
    9.7540   38.5440    0.1830 C   0  0  0  0  0  0  0  0  0  0  0  0
    8.8390   39.4500   -3.8800 C   0  0  0  0  0  0  0  0  0  0  0  0
    7.7350   38.9960   -3.8330 O   0  0  0  0  0  0  0  0  0  0  0  0
   12.4400   37.4080   -6.0970 O   0  0  0  0  0  0  0  0  0  0  0  0
   12.1770   39.9820   -6.9470 C   0  0  0  0  0  0  0  0  0  0  0  0
   12.8110   39.5040   -8.1350 N   0  0  0  0  0  0  0  0  0  0  0  0
   12.9090   40.2410   -9.3180 C   0  0  0  0  0  0  0  0  0  0  0  0
   13.5450   39.4950  -10.2910 O   0  0  0  0  0  0  0  0  0  0  0  0
   12.5040   41.3550   -9.4290 O   0  0  0  0  0  0  0  0  0  0  0  0
    9.0580   40.8330   -4.0400 N   0  0  0  0  0  0  0  0  0  0  0  0
    7.9910   41.8080   -4.1500 C   0  0  0  0  0  0  0  0  0  0  0  0
    7.5160   42.1660   -2.8670 N   0  0  0  0  0  0  0  0  0  0  0  0
   13.3544   41.1071  -11.5343 H   0  0  0  0  0  0  0  0  0  0  0  0
   13.5819   39.5060  -12.3316 H   0  0  0  0  0  0  0  0  0  0  0  0
   15.4319   41.6289   -9.7973 H   0  0  0  0  0  0  0  0  0  0  0  0
   17.8648   42.0267   -9.9371 H   0  0  0  0  0  0  0  0  0  0  0  0
   19.1973   41.0296  -11.7742 H   0  0  0  0  0  0  0  0  0  0  0  0
   18.1002   39.5608  -13.4350 H   0  0  0  0  0  0  0  0  0  0  0  0
   15.6541   39.1559  -13.3182 H   0  0  0  0  0  0  0  0  0  0  0  0
   12.0704   38.9795   -3.9516 H   0  0  0  0  0  0  0  0  0  0  0  0
    9.9064   37.5889   -4.0050 H   0  0  0  0  0  0  0  0  0  0  0  0
   11.4114   38.1246   -2.0609 H   0  0  0  0  0  0  0  0  0  0  0  0
   10.5998   39.7676   -1.9663 H   0  0  0  0  0  0  0  0  0  0  0  0
    8.4667   38.5993   -1.5292 H   0  0  0  0  0  0  0  0  0  0  0  0
    9.2713   36.1915   -0.3649 H   0  0  0  0  0  0  0  0  0  0  0  0
    8.3862   36.3871   -1.9158 H   0  0  0  0  0  0  0  0  0  0  0  0
   10.1764   36.2396   -1.9158 H   0  0  0  0  0  0  0  0  0  0  0  0
    9.2099   37.8829    0.8736 H   0  0  0  0  0  0  0  0  0  0  0  0
   10.8357   38.4449    0.3564 H   0  0  0  0  0  0  0  0  0  0  0  0
    9.4488   39.5865    0.3564 H   0  0  0  0  0  0  0  0  0  0  0  0
   12.6809   37.1215   -5.1805 H   0  0  0  0  0  0  0  0  0  0  0  0
   11.3709   40.6807   -7.2154 H   0  0  0  0  0  0  0  0  0  0  0  0
   12.9138   40.5030   -6.3179 H   0  0  0  0  0  0  0  0  0  0  0  0
   13.2205   38.5591   -8.1183 H   0  0  0  0  0  0  0  0  0  0  0  0
   10.0305   41.1698   -4.0811 H   0  0  0  0  0  0  0  0  0  0  0  0
    8.3715   42.7058   -4.6591 H   0  0  0  0  0  0  0  0  0  0  0  0
    7.1640   41.3683   -4.7267 H   0  0  0  0  0  0  0  0  0  0  0  0
    8.1043   41.7226   -2.1471 H   0  0  0  0  0  0  0  0  0  0  0  0
    7.5551   43.1897   -2.7597 H   0  0  0  0  0  0  0  0  0  0  0  0
  1  2  1  0
  1 22  1  0
  2  3  2  0
  2  7  1  0
  3  4  1  0
  4  5  2  0
  5  6  1  0
  6  7  2  0
  8  9  2  0
  9 10  1  0
  9 18  1  0
  9 19  1  0
 10 11  1  0
 11 12  1  0
 11 16  1  0
 12 13  1  0
 13 14  1  0
 13 15  1  0
 16 17  2  0
 16 24  1  0
 19 20  1  0
 20 21  1  0
 21 22  1  0
 21 23  2  0
 24 25  1  0
 25 26  1  0
  1 27  1  0
  1 28  1  0
  3 29  1  0
  4 30  1  0
  5 31  1  0
  6 32  1  0
  7 33  1  0
 10 34  1  0
 11 35  1  0
 12 36  1  0
 12 37  1  0
 13 38  1  0
 14 39  1  0
 14 40  1  0
 14 41  1  0
 15 42  1  0
 15 43  1  0
 15 44  1  0
 18 45  1  0
 19 46  1  0
 19 47  1  0
 20 48  1  0
 24 49  1  0
 25 50  1  0
 25 51  1  0
 26 52  1  0
 26 53  1  0
A    1
C10
A    2
C11
A    3
C12
A    4
C13
A    5
C14
A    6
C15
A    7
C16
A    8
O01
A    9
P01
A   10
N01
A   11
C01
A   12
C02
A   13
C03
A   14
C04
A   15
C05
A   16
C06
A   17
O02
A   18
O03
A   19
C08
A   20
N04
A   21
C09
A   22
O04
A   23
O05
A   24
N02
A   25
C07
A   26
N03
M  END
