5N3Y_8L2_E_411
     RDKit          3D

 59 59  0  0  0  0  0  0  0  0999 V2000
   12.1450   39.9960   -6.8460 C   0  0  0  0  0  0  0  0  0  0  0  0
   13.8000   40.3580  -11.3960 C   0  0  0  0  0  0  0  0  0  0  0  0
   15.2990   40.4930  -11.5440 C   0  0  0  0  0  0  0  0  0  0  0  0
   16.0030   39.8680  -12.5870 C   0  0  0  0  0  0  0  0  0  0  0  0
   17.3800   39.9940  -12.7090 C   0  0  0  0  0  0  0  0  0  0  0  0
   18.0610   40.7510  -11.7650 C   0  0  0  0  0  0  0  0  0  0  0  0
   17.3810   41.3740  -10.7010 C   0  0  0  0  0  0  0  0  0  0  0  0
   16.0110   41.2200  -10.5940 C   0  0  0  0  0  0  0  0  0  0  0  0
   10.0630   38.6110   -3.6680 C   0  0  0  0  0  0  0  0  0  0  0  0
    9.6300   38.5060    0.1990 C   0  0  0  0  0  0  0  0  0  0  0  0
    9.2230   36.5660   -1.4020 C   0  0  0  0  0  0  0  0  0  0  0  0
    8.8370   39.4990   -3.9140 C   0  0  0  0  0  0  0  0  0  0  0  0
    9.1290   40.8130   -4.1620 N   0  0  0  0  0  0  0  0  0  0  0  0
    8.1470   41.8620   -4.3840 C   0  0  0  0  0  0  0  0  0  0  0  0
    7.5910   42.2550   -2.0680 N   0  0  0  0  0  0  0  0  0  0  0  0
   11.4410   38.5540   -6.0070 P   0  0  0  0  0  0  0  0  0  0  0  0
   12.4210   37.4110   -6.1100 O   0  0  0  0  0  0  0  0  0  0  0  0
   12.7950   39.5960   -8.0780 N   0  0  0  0  0  0  0  0  0  0  0  0
   12.8190   40.3360   -9.1980 C   0  0  0  0  0  0  0  0  0  0  0  0
   12.3740   41.4460   -9.3120 O   0  0  0  0  0  0  0  0  0  0  0  0
   13.4430   39.6440  -10.1950 O   0  0  0  0  0  0  0  0  0  0  0  0
   11.2370   39.1120   -4.4120 N   0  0  0  0  0  0  0  0  0  0  0  0
   10.4200   38.6290   -2.1930 C   0  0  0  0  0  0  0  0  0  0  0  0
    9.3510   38.0810   -1.2450 C   0  0  0  0  0  0  0  0  0  0  0  0
    7.6890   39.0840   -3.8360 O   0  0  0  0  0  0  0  0  0  0  0  0
   10.0920   38.1960   -6.5630 O   0  0  0  0  0  0  0  0  0  0  0  0
    8.5810   42.6570   -5.6040 C   0  0  0  0  0  0  0  0  0  0  0  0
    9.6910   42.6000   -6.0620 O   0  0  0  0  0  0  0  0  0  0  0  0
    7.6160   43.4110   -6.1220 O   0  0  0  0  0  0  0  0  0  0  0  0
    8.0820   42.8860   -3.2620 C   0  0  0  0  0  0  0  0  0  0  0  0
   12.8830   40.4750   -6.1858 H   0  0  0  0  0  0  0  0  0  0  0  0
   11.3352   40.7019   -7.0826 H   0  0  0  0  0  0  0  0  0  0  0  0
   13.3539   41.3628  -11.3589 H   0  0  0  0  0  0  0  0  0  0  0  0
   13.4210   39.7890  -12.2577 H   0  0  0  0  0  0  0  0  0  0  0  0
   15.4507   39.2655  -13.3232 H   0  0  0  0  0  0  0  0  0  0  0  0
   17.9190   39.5056  -13.5342 H   0  0  0  0  0  0  0  0  0  0  0  0
   19.1517   40.8661  -11.8499 H   0  0  0  0  0  0  0  0  0  0  0  0
   17.9328   41.9758   -9.9639 H   0  0  0  0  0  0  0  0  0  0  0  0
   15.4773   41.6775   -9.7479 H   0  0  0  0  0  0  0  0  0  0  0  0
    9.8111   37.5945   -4.0045 H   0  0  0  0  0  0  0  0  0  0  0  0
    9.1600   37.7900    0.8893 H   0  0  0  0  0  0  0  0  0  0  0  0
   10.7161   38.5238    0.3727 H   0  0  0  0  0  0  0  0  0  0  0  0
    9.2144   39.5096    0.3727 H   0  0  0  0  0  0  0  0  0  0  0  0
    9.1833   36.0964   -0.4081 H   0  0  0  0  0  0  0  0  0  0  0  0
    8.3018   36.3313   -1.9555 H   0  0  0  0  0  0  0  0  0  0  0  0
   10.0917   36.1800   -1.9555 H   0  0  0  0  0  0  0  0  0  0  0  0
   10.1233   41.0799   -4.1939 H   0  0  0  0  0  0  0  0  0  0  0  0
    7.1736   41.3582   -4.4770 H   0  0  0  0  0  0  0  0  0  0  0  0
    7.9692   42.7411   -1.2424 H   0  0  0  0  0  0  0  0  0  0  0  0
    6.5622   42.3023   -2.0529 H   0  0  0  0  0  0  0  0  0  0  0  0
   12.6768   37.1127   -5.2013 H   0  0  0  0  0  0  0  0  0  0  0  0
   13.2706   38.6825   -8.0956 H   0  0  0  0  0  0  0  0  0  0  0  0
   12.0780   38.8456   -3.8803 H   0  0  0  0  0  0  0  0  0  0  0  0
   11.3313   38.0279   -2.0585 H   0  0  0  0  0  0  0  0  0  0  0  0
   10.5418   39.6893   -1.9268 H   0  0  0  0  0  0  0  0  0  0  0  0
    8.3771   38.5153   -1.5151 H   0  0  0  0  0  0  0  0  0  0  0  0
   10.4743   42.5598   -5.4579 H   0  0  0  0  0  0  0  0  0  0  0  0
    9.0877   43.2911   -3.0761 H   0  0  0  0  0  0  0  0  0  0  0  0
    7.4056   43.7043   -3.5500 H   0  0  0  0  0  0  0  0  0  0  0  0
  5  4  1  0
  5  6  2  0
  4  3  2  0
  6  7  1  0
  3  2  1  0
  3  8  1  0
  2 21  1  0
  7  8  2  0
 21 19  1  0
 20 19  2  0
 19 18  1  0
 18  1  1  0
  1 16  1  0
 26 16  2  0
 29 27  2  0
 17 16  1  0
 28 27  1  0
 16 22  1  0
 27 14  1  0
 22  9  1  0
 14 13  1  0
 14 30  1  0
 13 12  1  0
 12 25  2  0
 12  9  1  0
  9 23  1  0
 30 15  1  0
 23 24  1  0
 11 24  1  0
 24 10  1  0
  1 31  1  0
  1 32  1  0
  2 33  1  0
  2 34  1  0
  4 35  1  0
  5 36  1  0
  6 37  1  0
  7 38  1  0
  8 39  1  0
  9 40  1  0
 10 41  1  0
 10 42  1  0
 10 43  1  0
 11 44  1  0
 11 45  1  0
 11 46  1  0
 13 47  1  0
 14 48  1  0
 15 49  1  0
 15 50  1  0
 17 51  1  0
 18 52  1  0
 22 53  1  0
 23 54  1  0
 23 55  1  0
 24 56  1  0
 28 57  1  0
 30 58  1  0
 30 59  1  0
A    1
C3
A    2
C8
A    3
C9
A    4
C10
A    5
C11
A    6
C12
A    7
C13
A    8
C14
A    9
C16
A   10
C19
A   11
C20
A   12
C21
A   13
N23
A   14
C24
A   15
N26
A   16
P2
A   17
O1
A   18
N4
A   19
C5
A   20
O6
A   21
O7
A   22
N15
A   23
C17
A   24
C18
A   25
O22
A   26
O27
A   27
C28
A   28
O29
A   29
O30
A   30
C25
M  END
