2DBP_7PE_A_501
     RDKit          3D

 51 50  0  0  0  0  0  0  0  0999 V2000
   48.1280   -8.0930   56.3890 C   0  0  0  0  0  0  0  0  0  0  0  0
   47.8600   -6.6110   56.1460 C   0  0  0  0  0  0  0  0  0  0  0  0
   47.5160   -5.9800   57.3910 O   0  0  0  0  0  0  0  0  0  0  0  0
   46.8660   -6.9300   58.2460 C   0  0  0  0  0  0  0  0  0  0  0  0
   46.5160   -6.2750   59.5730 C   0  0  0  0  0  0  0  0  0  0  0  0
   47.6950   -5.6930   60.1470 O   0  0  0  0  0  0  0  0  0  0  0  0
   47.3600   -5.1510   61.4320 C   0  0  0  0  0  0  0  0  0  0  0  0
   48.6140   -4.6320   62.1190 C   0  0  0  0  0  0  0  0  0  0  0  0
   49.1680   -3.5240   61.3920 O   0  0  0  0  0  0  0  0  0  0  0  0
   48.2960   -2.3880   61.4920 C   0  0  0  0  0  0  0  0  0  0  0  0
   48.9650   -1.1720   60.8720 C   0  0  0  0  0  0  0  0  0  0  0  0
   50.1820   -0.8710   61.5720 O   0  0  0  0  0  0  0  0  0  0  0  0
   50.7440    0.3480   61.0600 C   0  0  0  0  0  0  0  0  0  0  0  0
   51.9890    0.7220   61.8490 C   0  0  0  0  0  0  0  0  0  0  0  0
   52.9700   -0.3190   61.7290 O   0  0  0  0  0  0  0  0  0  0  0  0
   54.0780   -0.0500   62.6010 C   0  0  0  0  0  0  0  0  0  0  0  0
   55.1430   -1.1160   62.4050 C   0  0  0  0  0  0  0  0  0  0  0  0
   54.5900   -2.4120   62.6830 O   0  0  0  0  0  0  0  0  0  0  0  0
   55.6300   -3.3990   62.6390 C   0  0  0  0  0  0  0  0  0  0  0  0
   55.0220   -4.7920   62.8360 C   0  0  0  0  0  0  0  0  0  0  0  0
   54.1060   -5.0660   61.7750 O   0  0  0  0  0  0  0  0  0  0  0  0
   48.1630   -8.2866   57.4713 H   0  0  0  0  0  0  0  0  0  0  0  0
   47.3233   -8.6903   55.9355 H   0  0  0  0  0  0  0  0  0  0  0  0
   49.0909   -8.3707   55.9355 H   0  0  0  0  0  0  0  0  0  0  0  0
   48.7621   -6.1377   55.7311 H   0  0  0  0  0  0  0  0  0  0  0  0
   47.0290   -6.4987   55.4340 H   0  0  0  0  0  0  0  0  0  0  0  0
   45.9455   -7.2873   57.7613 H   0  0  0  0  0  0  0  0  0  0  0  0
   47.5431   -7.7778   58.4273 H   0  0  0  0  0  0  0  0  0  0  0  0
   45.7637   -5.4899   59.4068 H   0  0  0  0  0  0  0  0  0  0  0  0
   46.1109   -7.0331   60.2595 H   0  0  0  0  0  0  0  0  0  0  0  0
   46.6458   -4.3243   61.3040 H   0  0  0  0  0  0  0  0  0  0  0  0
   46.9088   -5.9404   62.0511 H   0  0  0  0  0  0  0  0  0  0  0  0
   48.3587   -4.3044   63.1376 H   0  0  0  0  0  0  0  0  0  0  0  0
   49.3590   -5.4405   62.1543 H   0  0  0  0  0  0  0  0  0  0  0  0
   47.3570   -2.5999   60.9596 H   0  0  0  0  0  0  0  0  0  0  0  0
   48.0822   -2.1852   62.5518 H   0  0  0  0  0  0  0  0  0  0  0  0
   49.1939   -1.3807   59.8165 H   0  0  0  0  0  0  0  0  0  0  0  0
   48.2850   -0.3103   60.9429 H   0  0  0  0  0  0  0  0  0  0  0  0
   51.0119    0.2089   60.0022 H   0  0  0  0  0  0  0  0  0  0  0  0
   50.0018    1.1543   61.1555 H   0  0  0  0  0  0  0  0  0  0  0  0
   52.4031    1.6616   61.4545 H   0  0  0  0  0  0  0  0  0  0  0  0
   51.7231    0.8510   62.9086 H   0  0  0  0  0  0  0  0  0  0  0  0
   54.4997    0.9382   62.3649 H   0  0  0  0  0  0  0  0  0  0  0  0
   53.7349   -0.0603   63.6461 H   0  0  0  0  0  0  0  0  0  0  0  0
   55.5018   -1.0872   61.3655 H   0  0  0  0  0  0  0  0  0  0  0  0
   55.9808   -0.9234   63.0913 H   0  0  0  0  0  0  0  0  0  0  0  0
   56.1363   -3.3547   61.6635 H   0  0  0  0  0  0  0  0  0  0  0  0
   56.3577   -3.2003   63.4396 H   0  0  0  0  0  0  0  0  0  0  0  0
   55.8233   -5.5456   62.8325 H   0  0  0  0  0  0  0  0  0  0  0  0
   54.4899   -4.8271   63.7981 H   0  0  0  0  0  0  0  0  0  0  0  0
   53.2301   -5.3280   62.1547 H   0  0  0  0  0  0  0  0  0  0  0  0
  1  2  1  0
  2  3  1  0
  3  4  1  0
  4  5  1  0
  5  6  1  0
  6  7  1  0
  7  8  1  0
  8  9  1  0
  9 10  1  0
 10 11  1  0
 11 12  1  0
 12 13  1  0
 13 14  1  0
 14 15  1  0
 15 16  1  0
 16 17  1  0
 17 18  1  0
 18 19  1  0
 19 20  1  0
 20 21  1  0
  1 22  1  0
  1 23  1  0
  1 24  1  0
  2 25  1  0
  2 26  1  0
  4 27  1  0
  4 28  1  0
  5 29  1  0
  5 30  1  0
  7 31  1  0
  7 32  1  0
  8 33  1  0
  8 34  1  0
 10 35  1  0
 10 36  1  0
 11 37  1  0
 11 38  1  0
 13 39  1  0
 13 40  1  0
 14 41  1  0
 14 42  1  0
 16 43  1  0
 16 44  1  0
 17 45  1  0
 17 46  1  0
 19 47  1  0
 19 48  1  0
 20 49  1  0
 20 50  1  0
 21 51  1  0
A    1
C21
A    2
C20
A    3
O19
A    4
C18
A    5
C17
A    6
O16
A    7
C15
A    8
C14
A    9
O13
A   10
C12
A   11
C11
A   12
O10
A   13
C9
A   14
C8
A   15
O7
A   16
C6
A   17
C5
A   18
O4
A   19
C3
A   20
C2
A   21
O1
M  END
