5N7V_8PT_A_901
     RDKit          3D

 59 63  0  0  0  0  0  0  0  0999 V2000
   36.2030   43.2240   37.9060 C   0  0  0  0  0  0  0  0  0  0  0  0
   36.6270   42.3890   38.9060 C   0  0  0  0  0  0  0  0  0  0  0  0
   36.2810   42.6830   40.1790 C   0  0  0  0  0  0  0  0  0  0  0  0
   37.3430   41.6700   36.9960 C   0  0  0  0  0  0  0  0  0  0  0  0
   35.1080   44.5340   39.4800 C   0  0  0  0  0  0  0  0  0  0  0  0
   38.4230   41.4770   42.7350 C   0  0  0  0  0  0  0  0  0  0  0  0
   38.0290   41.3730   44.2210 C   0  0  0  0  0  0  0  0  0  0  0  0
   36.8060   40.4660   44.5450 C   0  0  0  0  0  0  0  0  0  0  0  0
   35.8020   40.3210   43.3930 C   0  0  0  0  0  0  0  0  0  0  0  0
   36.6200   39.8240   42.2620 C   0  0  0  0  0  0  0  0  0  0  0  0
   37.4100   40.9790   41.6560 C   0  0  0  0  0  0  0  0  0  0  0  0
   36.5380   42.0460   41.3310 N   0  0  0  0  0  0  0  0  0  0  0  0
   35.5400   43.7360   40.4250 N   0  0  0  0  0  0  0  0  0  0  0  0
   37.3310   41.4320   38.3370 N   0  0  0  0  0  0  0  0  0  0  0  0
   36.6390   42.7670   36.7220 N   0  0  0  0  0  0  0  0  0  0  0  0
   35.4360   44.3030   38.1850 N   0  0  0  0  0  0  0  0  0  0  0  0
   34.3740   45.5380   39.9560 N   0  0  0  0  0  0  0  0  0  0  0  0
   34.1920   45.6190   41.3170 C   0  0  0  0  0  0  0  0  0  0  0  0
   34.2640   46.8980   41.8980 C   0  0  0  0  0  0  0  0  0  0  0  0
   34.5260   48.0390   41.1560 C   0  0  0  0  0  0  0  0  0  0  0  0
   34.0790   47.0390   43.2580 C   0  0  0  0  0  0  0  0  0  0  0  0
   33.9390   44.5030   42.1390 C   0  0  0  0  0  0  0  0  0  0  0  0
   33.7480   44.6650   43.5020 C   0  0  0  0  0  0  0  0  0  0  0  0
   33.8200   45.9440   44.0630 C   0  0  0  0  0  0  0  0  0  0  0  0
   33.6290   46.1490   45.3740 N   0  0  0  0  0  0  0  0  0  0  0  0
   32.6370   47.1600   45.7840 C   0  0  0  0  0  0  0  0  0  0  0  0
   32.6840   47.2030   47.3090 C   0  0  0  0  0  0  0  0  0  0  0  0
   32.4510   45.8650   47.8090 O   0  0  0  0  0  0  0  0  0  0  0  0
   33.5630   44.9930   47.6190 C   0  0  0  0  0  0  0  0  0  0  0  0
   34.3960   45.3910   46.3920 C   0  0  0  0  0  0  0  0  0  0  0  0
   37.8582   41.0479   36.2493 H   0  0  0  0  0  0  0  0  0  0  0  0
   39.3481   40.8965   42.6035 H   0  0  0  0  0  0  0  0  0  0  0  0
   38.4981   42.5592   42.5528 H   0  0  0  0  0  0  0  0  0  0  0  0
   38.8955   40.9775   44.7712 H   0  0  0  0  0  0  0  0  0  0  0  0
   37.7296   42.3888   44.5184 H   0  0  0  0  0  0  0  0  0  0  0  0
   36.2784   40.8956   45.4093 H   0  0  0  0  0  0  0  0  0  0  0  0
   37.2046   39.4600   44.7429 H   0  0  0  0  0  0  0  0  0  0  0  0
   35.3456   41.2914   43.1482 H   0  0  0  0  0  0  0  0  0  0  0  0
   34.9694   39.6462   43.6407 H   0  0  0  0  0  0  0  0  0  0  0  0
   35.9605   39.3899   41.4961 H   0  0  0  0  0  0  0  0  0  0  0  0
   37.3176   39.0552   42.6257 H   0  0  0  0  0  0  0  0  0  0  0  0
   37.9254   40.6443   40.7437 H   0  0  0  0  0  0  0  0  0  0  0  0
   35.9975   42.4010   42.1327 H   0  0  0  0  0  0  0  0  0  0  0  0
   37.7896   40.6458   38.8191 H   0  0  0  0  0  0  0  0  0  0  0  0
   33.9546   46.2340   39.3231 H   0  0  0  0  0  0  0  0  0  0  0  0
   34.7196   48.8820   41.8357 H   0  0  0  0  0  0  0  0  0  0  0  0
   35.4085   47.8693   40.5217 H   0  0  0  0  0  0  0  0  0  0  0  0
   33.6578   48.2713   40.5217 H   0  0  0  0  0  0  0  0  0  0  0  0
   34.1385   48.0399   43.7103 H   0  0  0  0  0  0  0  0  0  0  0  0
   33.8928   43.4971   41.6962 H   0  0  0  0  0  0  0  0  0  0  0  0
   33.5409   43.7925   44.1390 H   0  0  0  0  0  0  0  0  0  0  0  0
   32.8985   48.1433   45.3659 H   0  0  0  0  0  0  0  0  0  0  0  0
   31.6305   46.9072   45.4194 H   0  0  0  0  0  0  0  0  0  0  0  0
   33.6711   47.5574   47.6408 H   0  0  0  0  0  0  0  0  0  0  0  0
   31.9153   47.8900   47.6925 H   0  0  0  0  0  0  0  0  0  0  0  0
   33.1914   43.9671   47.4796 H   0  0  0  0  0  0  0  0  0  0  0  0
   34.2079   45.0624   48.5074 H   0  0  0  0  0  0  0  0  0  0  0  0
   34.7846   44.4748   45.9235 H   0  0  0  0  0  0  0  0  0  0  0  0
   35.1997   46.0520   46.7485 H   0  0  0  0  0  0  0  0  0  0  0  0
 15  4  2  0
 15  1  1  0
  4 14  1  0
  1 16  2  0
  1  2  1  0
 16  5  1  0
 14  2  1  0
  2  3  2  0
  5 17  1  0
  5 13  2  0
 17 18  1  0
  3 13  1  0
  3 12  1  0
 20 19  1  0
 18 19  2  0
 18 22  1  0
 12 11  1  0
 11 10  1  0
 11  6  1  0
 19 21  1  0
 22 23  2  0
 10  9  1  0
  6  7  1  0
 21 24  2  0
  9  8  1  0
 23 24  1  0
 24 25  1  0
  7  8  1  0
 25 26  1  0
 25 30  1  0
 26 27  1  0
 30 29  1  0
 27 28  1  0
 29 28  1  0
  4 31  1  0
  6 32  1  0
  6 33  1  0
  7 34  1  0
  7 35  1  0
  8 36  1  0
  8 37  1  0
  9 38  1  0
  9 39  1  0
 10 40  1  0
 10 41  1  0
 11 42  1  0
 12 43  1  0
 14 44  1  0
 17 45  1  0
 20 46  1  0
 20 47  1  0
 20 48  1  0
 21 49  1  0
 22 50  1  0
 23 51  1  0
 26 52  1  0
 26 53  1  0
 27 54  1  0
 27 55  1  0
 29 56  1  0
 29 57  1  0
 30 58  1  0
 30 59  1  0
A    1
C4
A    2
C5
A    3
C6
A    4
C8
A    5
C2
A    6
CAU
A    7
CAV
A    8
CAW
A    9
CAX
A   10
CAY
A   11
CAK
A   12
N6
A   13
N1
A   14
N7
A   15
N9
A   16
N3
A   17
N2
A   18
CAM
A   19
CAR
A   20
CAS
A   21
CAQ
A   22
CAN
A   23
CAO
A   24
CAP
A   25
NAT
A   26
CAZ
A   27
CBA
A   28
OBB
A   29
CBC
A   30
CBD
M  END
