5N9S_8QW_A_901
     RDKit          3D

 66 70  0  0  0  0  0  0  0  0999 V2000
   36.2710   43.6670   37.0410 C   0  0  0  0  0  0  0  0  0  0  0  0
   37.3930   41.9280   35.8720 C   0  0  0  0  0  0  0  0  0  0  0  0
   37.6410   41.2630   37.0680 C   0  0  0  0  0  0  0  0  0  0  0  0
   37.1700   41.8330   38.2440 C   0  0  0  0  0  0  0  0  0  0  0  0
   34.5140   45.7430   40.7320 C   0  0  0  0  0  0  0  0  0  0  0  0
   34.3750   44.8580   42.9930 C   0  0  0  0  0  0  0  0  0  0  0  0
   34.5420   44.6670   41.6270 C   0  0  0  0  0  0  0  0  0  0  0  0
   34.1110   46.1590   43.4800 C   0  0  0  0  0  0  0  0  0  0  0  0
   34.2710   47.1110   41.2660 C   0  0  0  0  0  0  0  0  0  0  0  0
   46.7940   34.6540   35.9290 F   0  0  0  0  0  0  0  0  0  0  0  0
   45.5150   34.5540   36.2560 C   0  0  0  0  0  0  0  0  0  0  0  0
   44.4840   34.7340   35.3140 C   0  0  0  0  0  0  0  0  0  0  0  0
   43.1640   34.6030   35.7190 C   0  0  0  0  0  0  0  0  0  0  0  0
   45.2600   34.1870   37.5370 C   0  0  0  0  0  0  0  0  0  0  0  0
   43.9490   34.0720   37.9380 C   0  0  0  0  0  0  0  0  0  0  0  0
   42.8910   34.2500   37.0400 C   0  0  0  0  0  0  0  0  0  0  0  0
   41.4810   34.1240   37.4890 C   0  0  0  0  0  0  0  0  0  0  0  0
   41.2430   33.2090   38.7200 C   0  0  0  0  0  0  0  0  0  0  0  0
   40.9730   35.5270   37.8460 C   0  0  0  0  0  0  0  0  0  0  0  0
   41.3510   36.0550   38.8780 O   0  0  0  0  0  0  0  0  0  0  0  0
   40.1340   36.1210   36.9900 N   0  0  0  0  0  0  0  0  0  0  0  0
   39.5700   37.3820   37.1370 C   0  0  0  0  0  0  0  0  0  0  0  0
   39.7240   38.2600   38.2580 C   0  0  0  0  0  0  0  0  0  0  0  0
   39.1160   39.5280   38.2310 C   0  0  0  0  0  0  0  0  0  0  0  0
   38.3550   39.9390   37.1270 C   0  0  0  0  0  0  0  0  0  0  0  0
   38.2230   39.0600   36.0420 C   0  0  0  0  0  0  0  0  0  0  0  0
   38.8470   37.7970   36.0170 C   0  0  0  0  0  0  0  0  0  0  0  0
   36.5430   43.0140   38.1840 N   0  0  0  0  0  0  0  0  0  0  0  0
   36.6850   43.1180   35.8500 C   0  0  0  0  0  0  0  0  0  0  0  0
   35.5700   44.7920   37.3850 N   0  0  0  0  0  0  0  0  0  0  0  0
   35.4750   44.7050   38.7370 C   0  0  0  0  0  0  0  0  0  0  0  0
   36.0380   43.6040   39.3020 N   0  0  0  0  0  0  0  0  0  0  0  0
   34.7830   45.6800   39.4000 N   0  0  0  0  0  0  0  0  0  0  0  0
   34.2250   48.1350   40.3560 O   0  0  0  0  0  0  0  0  0  0  0  0
   34.2440   49.5210   40.6880 C   0  0  0  0  0  0  0  0  0  0  0  0
   34.0630   47.2690   42.6230 C   0  0  0  0  0  0  0  0  0  0  0  0
   33.9080   46.4540   45.0510 S   0  0  0  0  0  0  0  0  0  0  0  0
   35.3880   46.8460   45.6860 C   0  0  0  0  0  0  0  0  0  0  0  0
   32.9150   47.4730   45.0860 O   0  0  0  0  0  0  0  0  0  0  0  0
   33.4830   45.3120   45.8280 O   0  0  0  0  0  0  0  0  0  0  0  0
   37.7651   41.5020   34.9286 H   0  0  0  0  0  0  0  0  0  0  0  0
   37.3100   41.3224   39.2082 H   0  0  0  0  0  0  0  0  0  0  0  0
   34.4473   44.0077   43.6871 H   0  0  0  0  0  0  0  0  0  0  0  0
   34.6995   43.6491   41.2408 H   0  0  0  0  0  0  0  0  0  0  0  0
   44.7230   34.9760   34.2679 H   0  0  0  0  0  0  0  0  0  0  0  0
   42.3431   34.7753   35.0073 H   0  0  0  0  0  0  0  0  0  0  0  0
   46.0827   33.9860   38.2390 H   0  0  0  0  0  0  0  0  0  0  0  0
   43.7275   33.8346   38.9890 H   0  0  0  0  0  0  0  0  0  0  0  0
   40.9441   33.6508   36.6536 H   0  0  0  0  0  0  0  0  0  0  0  0
   41.3938   33.7889   39.6425 H   0  0  0  0  0  0  0  0  0  0  0  0
   40.2140   32.8209   38.6949 H   0  0  0  0  0  0  0  0  0  0  0  0
   41.9525   32.3688   38.6949 H   0  0  0  0  0  0  0  0  0  0  0  0
   39.8824   35.5936   36.1418 H   0  0  0  0  0  0  0  0  0  0  0  0
   40.3126   37.9454   39.1324 H   0  0  0  0  0  0  0  0  0  0  0  0
   39.2391   40.2068   39.0878 H   0  0  0  0  0  0  0  0  0  0  0  0
   37.6113   39.3673   35.1810 H   0  0  0  0  0  0  0  0  0  0  0  0
   38.7660   37.1497   35.1313 H   0  0  0  0  0  0  0  0  0  0  0  0
   36.4576   43.6158   34.8958 H   0  0  0  0  0  0  0  0  0  0  0  0
   34.4242   46.4557   38.8251 H   0  0  0  0  0  0  0  0  0  0  0  0
   34.2456   49.6360   41.7820 H   0  0  0  0  0  0  0  0  0  0  0  0
   35.1486   49.9860   40.2691 H   0  0  0  0  0  0  0  0  0  0  0  0
   33.3525   50.0106   40.2691 H   0  0  0  0  0  0  0  0  0  0  0  0
   33.8590   48.2691   43.0330 H   0  0  0  0  0  0  0  0  0  0  0  0
   35.3313   46.8310   46.7844 H   0  0  0  0  0  0  0  0  0  0  0  0
   36.1374   46.1154   45.3475 H   0  0  0  0  0  0  0  0  0  0  0  0
   35.6775   47.8518   45.3475 H   0  0  0  0  0  0  0  0  0  0  0  0
 12 13  1  0
 12 11  2  0
 13 16  2  0
 29  2  2  0
 29  1  1  0
  2  3  1  0
 10 11  1  0
 27 26  2  0
 27 22  1  0
 26 25  1  0
 11 14  1  0
 21 22  1  0
 21 19  1  0
 16 17  1  0
 16 15  1  0
  1 30  2  0
  1 28  1  0
  3 25  1  0
  3  4  2  0
 25 24  2  0
 22 23  2  0
 30 31  1  0
 17 19  1  0
 17 18  1  0
 14 15  2  0
 19 20  2  0
 28  4  1  0
 28 32  1  0
 24 23  1  0
 31 32  2  0
 31 33  1  0
 33  5  1  0
 34 35  1  0
 34  9  1  0
  5  9  2  0
  5  7  1  0
  9 36  1  0
  7  6  2  0
 36  8  2  0
  6  8  1  0
  8 37  1  0
 37 39  2  0
 37 38  1  0
 37 40  2  0
  2 41  1  0
  4 42  1  0
  6 43  1  0
  7 44  1  0
 12 45  1  0
 13 46  1  0
 14 47  1  0
 15 48  1  0
 17 49  1  0
 18 50  1  0
 18 51  1  0
 18 52  1  0
 21 53  1  0
 23 54  1  0
 24 55  1  0
 26 56  1  0
 27 57  1  0
 29 58  1  0
 33 59  1  0
 35 60  1  0
 35 61  1  0
 35 62  1  0
 36 63  1  0
 38 64  1  0
 38 65  1  0
 38 66  1  0
A    1
C1
A    2
C2
A    3
C4
A    4
C6
A    5
C12
A    6
C13
A    7
C14
A    8
C15
A    9
C16
A   10
F40
A   11
C36
A   12
C38
A   13
C37
A   14
C34
A   15
C35
A   16
C26
A   17
C25
A   18
C39
A   19
C24
A   20
O33
A   21
N23
A   22
C20
A   23
C22
A   24
C21
A   25
C10
A   26
C19
A   27
C18
A   28
N5
A   29
C3
A   30
N8
A   31
C9
A   32
N7
A   33
N11
A   34
O31
A   35
C32
A   36
C17
A   37
S27
A   38
C30
A   39
O29
A   40
O28
M  END
