5NAG_8R5_A_502
     RDKit          3D

 39 41  0  0  0  0  0  0  0  0999 V2000
   11.0160  -39.8530   48.3210 N   0  0  0  0  0  0  0  0  0  0  0  0
   10.7490  -33.8540   48.2780 C   0  0  0  0  0  0  0  0  0  0  0  0
    9.9570  -32.0290   47.2110 C   0  0  0  0  0  0  0  0  0  0  0  0
    9.6200  -31.0910   46.0740 C   0  0  0  0  0  0  0  0  0  0  0  0
   10.7830  -30.1100   45.9220 C   0  0  0  0  0  0  0  0  0  0  0  0
   10.6010  -29.0360   44.8820 C   0  0  0  0  0  0  0  0  0  0  0  0
   10.8560  -34.0990   45.9010 C   0  0  0  0  0  0  0  0  0  0  0  0
   13.3950  -39.9890   48.0390 C   0  0  0  0  0  0  0  0  0  0  0  0
   12.0460  -41.9170   47.6340 C   0  0  0  0  0  0  0  0  0  0  0  0
   11.8720  -36.2890   44.7230 Cl  0  0  0  0  0  0  0  0  0  0  0  0
   11.3870  -35.3630   46.0990 C   0  0  0  0  0  0  0  0  0  0  0  0
   10.5370  -33.3280   47.0110 C   0  0  0  0  0  0  0  0  0  0  0  0
    9.7170  -29.0240   44.0360 O   0  0  0  0  0  0  0  0  0  0  0  0
   11.5170  -28.0920   44.9760 O   0  0  0  0  0  0  0  0  0  0  0  0
    9.8130  -31.8030   48.4620 N   0  0  0  0  0  0  0  0  0  0  0  0
   10.3000  -32.9430   49.1760 O   0  0  0  0  0  0  0  0  0  0  0  0
   11.2810  -35.1060   48.5040 C   0  0  0  0  0  0  0  0  0  0  0  0
   11.6040  -35.8770   47.3820 C   0  0  0  0  0  0  0  0  0  0  0  0
   12.1580  -37.1230   47.4280 O   0  0  0  0  0  0  0  0  0  0  0  0
   12.2300  -37.8110   48.6750 C   0  0  0  0  0  0  0  0  0  0  0  0
   13.4990  -37.3620   49.3780 C   0  0  0  0  0  0  0  0  0  0  0  0
   12.2340  -39.2910   48.3630 C   0  0  0  0  0  0  0  0  0  0  0  0
   10.9410  -41.1480   47.9650 C   0  0  0  0  0  0  0  0  0  0  0  0
   13.2840  -41.3180   47.6620 C   0  0  0  0  0  0  0  0  0  0  0  0
    8.6943  -30.5424   46.3024 H   0  0  0  0  0  0  0  0  0  0  0  0
    9.4662  -31.6544   45.1418 H   0  0  0  0  0  0  0  0  0  0  0  0
   11.6803  -30.6884   45.6568 H   0  0  0  0  0  0  0  0  0  0  0  0
   10.8591  -29.5842   46.8852 H   0  0  0  0  0  0  0  0  0  0  0  0
   10.6902  -33.7135   44.8842 H   0  0  0  0  0  0  0  0  0  0  0  0
   14.3777  -39.4966   48.0814 H   0  0  0  0  0  0  0  0  0  0  0  0
   11.9359  -42.9758   47.3569 H   0  0  0  0  0  0  0  0  0  0  0  0
   11.8183  -27.7815   45.8665 H   0  0  0  0  0  0  0  0  0  0  0  0
   11.4447  -35.4830   49.5243 H   0  0  0  0  0  0  0  0  0  0  0  0
   11.3813  -37.5951   49.3406 H   0  0  0  0  0  0  0  0  0  0  0  0
   13.3528  -37.4137   50.4670 H   0  0  0  0  0  0  0  0  0  0  0  0
   14.3313  -38.0202   49.0881 H   0  0  0  0  0  0  0  0  0  0  0  0
   13.7321  -36.3268   49.0881 H   0  0  0  0  0  0  0  0  0  0  0  0
    9.9491  -41.6226   47.9349 H   0  0  0  0  0  0  0  0  0  0  0  0
   14.1816  -41.8911   47.3865 H   0  0  0  0  0  0  0  0  0  0  0  0
 13  6  2  0
 10 11  1  0
  6 14  1  0
  6  5  1  0
  7 11  1  0
  7 12  2  0
  5  4  1  0
  4  3  1  0
 11 18  2  0
 12  3  1  0
 12  2  1  0
  3 15  2  0
 18 19  1  0
 18 17  1  0
 19 20  1  0
  9 24  2  0
  9 23  1  0
 24  8  1  0
 23  1  2  0
  8 22  2  0
  2 17  2  0
  2 16  1  0
  1 22  1  0
 22 20  1  0
 15 16  1  0
 20 21  1  0
  4 25  1  0
  4 26  1  0
  5 27  1  0
  5 28  1  0
  7 29  1  0
  8 30  1  0
  9 31  1  0
 14 32  1  0
 17 33  1  0
 20 34  1  0
 21 35  1  0
 21 36  1  0
 21 37  1  0
 23 38  1  0
 24 39  1  0
A    1
N1
A    2
C4
A    3
C5
A    4
C6
A    5
C7
A    6
C8
A    7
C10
A    8
C13
A    9
C15
A   10
CL
A   11
C11
A   12
C9
A   13
O3
A   14
O2
A   15
N
A   16
O1
A   17
C3
A   18
C2
A   19
O
A   20
C1
A   21
C
A   22
C12
A   23
C16
A   24
C14
M  END
