2R2N_KYN_A_427
     RDKit          3D

 27 27  0  0  0  0  0  0  0  0999 V2000
    6.0820   17.7120   51.3480 C   0  0  0  0  0  0  0  0  0  0  0  0
    4.5760   16.2310   52.2830 N   0  0  0  0  0  0  0  0  0  0  0  0
    6.9880   18.8170   51.6560 O   0  0  0  0  0  0  0  0  0  0  0  0
    7.0510   14.4080   52.8920 C   0  0  0  0  0  0  0  0  0  0  0  0
    9.0480   12.8490   52.0210 N   0  0  0  0  0  0  0  0  0  0  0  0
    6.2620   13.5310   53.1760 O   0  0  0  0  0  0  0  0  0  0  0  0
    5.9640   16.6130   52.3260 C   0  0  0  0  0  0  0  0  0  0  0  0
    6.7890   15.4400   51.8200 C   0  0  0  0  0  0  0  0  0  0  0  0
    9.3420   13.6480   53.0680 C   0  0  0  0  0  0  0  0  0  0  0  0
    9.8690   15.3110   55.1920 C   0  0  0  0  0  0  0  0  0  0  0  0
   10.6030   13.6480   53.6290 C   0  0  0  0  0  0  0  0  0  0  0  0
    8.3670   14.4540   53.5640 C   0  0  0  0  0  0  0  0  0  0  0  0
   10.8630   14.4860   54.6960 C   0  0  0  0  0  0  0  0  0  0  0  0
    8.6110   15.2980   54.6190 C   0  0  0  0  0  0  0  0  0  0  0  0
    5.3410   17.6470   50.3590 O   0  0  0  0  0  0  0  0  0  0  0  0
    4.2172   16.1322   53.2434 H   0  0  0  0  0  0  0  0  0  0  0  0
    4.0359   16.9546   51.7874 H   0  0  0  0  0  0  0  0  0  0  0  0
    7.1803   19.0515   52.5984 H   0  0  0  0  0  0  0  0  0  0  0  0
    8.6968   11.8946   52.1842 H   0  0  0  0  0  0  0  0  0  0  0  0
    9.1748   13.1936   51.0587 H   0  0  0  0  0  0  0  0  0  0  0  0
    6.2994   16.8999   53.3336 H   0  0  0  0  0  0  0  0  0  0  0  0
    7.7540   15.8201   51.4537 H   0  0  0  0  0  0  0  0  0  0  0  0
    6.2153   14.9502   51.0194 H   0  0  0  0  0  0  0  0  0  0  0  0
   10.0797   15.9769   56.0418 H   0  0  0  0  0  0  0  0  0  0  0  0
   11.3900   12.9899   53.2320 H   0  0  0  0  0  0  0  0  0  0  0  0
   11.8636   14.4975   55.1529 H   0  0  0  0  0  0  0  0  0  0  0  0
    7.8165   15.9548   55.0030 H   0  0  0  0  0  0  0  0  0  0  0  0
  7  1  1  0
 15  1  2  0
  1  3  1  0
  2  7  1  0
 12  4  1  0
  6  4  2  0
  4  8  1  0
  9  5  1  0
  8  7  1  0
 11  9  2  0
 12  9  1  0
 10 13  2  0
 10 14  1  0
 13 11  1  0
 14 12  2  0
  2 16  1  0
  2 17  1  0
  3 18  1  0
  5 19  1  0
  5 20  1  0
  7 21  1  0
  8 22  1  0
  8 23  1  0
 10 24  1  0
 11 25  1  0
 13 26  1  0
 14 27  1  0
A    1
C
A    2
N
A    3
OXT
A    4
C1
A    5
N1
A    6
O2
A    7
CA
A    8
CB
A    9
CG
A   10
CZ
A   11
CD1
A   12
CD2
A   13
CE1
A   14
CE2
A   15
O
M  END
