5NAR_8RW_A_302
     RDKit          3D

 54 57  0  0  0  0  0  0  0  0999 V2000
    2.0420  -12.4620   -4.1230 C   0  0  0  0  0  0  0  0  0  0  0  0
   -4.6910   -6.1620   -4.0570 C   0  0  0  0  0  0  0  0  0  0  0  0
    1.2560  -11.2240   -3.7950 C   0  0  0  0  0  0  0  0  0  0  0  0
   -0.6380  -10.3360   -5.2420 C   0  0  0  0  0  0  0  0  0  0  0  0
   -2.3710   -7.5440   -4.7650 C   0  0  0  0  0  0  0  0  0  0  0  0
   -1.1750   -8.0090   -5.3440 C   0  0  0  0  0  0  0  0  0  0  0  0
   -0.9320   -7.2190   -6.3670 C   0  0  0  0  0  0  0  0  0  0  0  0
   -2.0320   -5.2490   -7.5580 C   0  0  0  0  0  0  0  0  0  0  0  0
   -2.8710   -6.4880   -5.5410 C   0  0  0  0  0  0  0  0  0  0  0  0
   -3.1150   -7.9480   -3.6530 C   0  0  0  0  0  0  0  0  0  0  0  0
   -4.2710   -7.2510   -3.3290 C   0  0  0  0  0  0  0  0  0  0  0  0
    0.1200  -11.3240   -4.7070 N   0  0  0  0  0  0  0  0  0  0  0  0
   -0.3930   -9.1030   -4.9290 N   0  0  0  0  0  0  0  0  0  0  0  0
    1.0520  -13.4870   -4.4230 C   0  0  0  0  0  0  0  0  0  0  0  0
   -1.9580   -6.2740   -6.5400 N   0  0  0  0  0  0  0  0  0  0  0  0
   -2.0130  -12.7650   -3.5680 O   0  0  0  0  0  0  0  0  0  0  0  0
   -1.4770  -13.2340   -4.5400 C   0  0  0  0  0  0  0  0  0  0  0  0
   -0.1330  -12.7270   -4.9500 C   0  0  0  0  0  0  0  0  0  0  0  0
   -0.9110   -5.1000   -8.2630 N   0  0  0  0  0  0  0  0  0  0  0  0
   -3.0380   -4.6330   -7.7450 O   0  0  0  0  0  0  0  0  0  0  0  0
   -4.0290   -5.7970   -5.2230 C   0  0  0  0  0  0  0  0  0  0  0  0
   -1.5480  -10.5750   -6.0320 O   0  0  0  0  0  0  0  0  0  0  0  0
   -2.0230  -14.2150   -5.2770 N   0  0  0  0  0  0  0  0  0  0  0  0
   -3.2440  -14.8070   -5.0980 C   0  0  0  0  0  0  0  0  0  0  0  0
   -3.6480  -15.2010   -3.8290 C   0  0  0  0  0  0  0  0  0  0  0  0
   -4.8480  -15.8980   -3.6860 C   0  0  0  0  0  0  0  0  0  0  0  0
   -5.6040  -16.2270   -4.8000 C   0  0  0  0  0  0  0  0  0  0  0  0
   -5.1450  -15.8380   -6.0540 C   0  0  0  0  0  0  0  0  0  0  0  0
   -5.8630  -16.1940   -7.2010 O   0  0  0  0  0  0  0  0  0  0  0  0
   -6.7440  -15.3040   -7.6280 C   0  0  0  0  0  0  0  0  0  0  0  0
   -7.5080  -14.9150   -6.6540 F   0  0  0  0  0  0  0  0  0  0  0  0
   -7.5190  -15.7160   -8.5890 F   0  0  0  0  0  0  0  0  0  0  0  0
   -6.1370  -14.2170   -8.0240 F   0  0  0  0  0  0  0  0  0  0  0  0
   -3.9430  -15.1730   -6.2080 C   0  0  0  0  0  0  0  0  0  0  0  0
    2.6589  -12.7639   -3.2638 H   0  0  0  0  0  0  0  0  0  0  0  0
    2.7262  -12.2974   -4.9685 H   0  0  0  0  0  0  0  0  0  0  0  0
   -5.5566   -5.5763   -3.7139 H   0  0  0  0  0  0  0  0  0  0  0  0
    1.8445  -10.3154   -3.9903 H   0  0  0  0  0  0  0  0  0  0  0  0
    0.9654  -11.1551   -2.7363 H   0  0  0  0  0  0  0  0  0  0  0  0
   -0.0393   -7.2889   -7.0060 H   0  0  0  0  0  0  0  0  0  0  0  0
   -2.7898   -8.8046   -3.0443 H   0  0  0  0  0  0  0  0  0  0  0  0
   -4.8682   -7.5789   -2.4654 H   0  0  0  0  0  0  0  0  0  0  0  0
    0.4281   -8.9107   -4.3376 H   0  0  0  0  0  0  0  0  0  0  0  0
    0.7826  -14.0446   -3.5139 H   0  0  0  0  0  0  0  0  0  0  0  0
    1.4255  -14.2294   -5.1436 H   0  0  0  0  0  0  0  0  0  0  0  0
   -0.2198  -12.8979   -6.0332 H   0  0  0  0  0  0  0  0  0  0  0  0
   -0.0100   -4.9802   -7.7785 H   0  0  0  0  0  0  0  0  0  0  0  0
   -0.9456   -5.1046   -9.2924 H   0  0  0  0  0  0  0  0  0  0  0  0
   -4.4093   -4.9913   -5.8681 H   0  0  0  0  0  0  0  0  0  0  0  0
   -1.4590  -14.5611   -6.0663 H   0  0  0  0  0  0  0  0  0  0  0  0
   -3.0306  -14.9668   -2.9492 H   0  0  0  0  0  0  0  0  0  0  0  0
   -5.1960  -16.1880   -2.6836 H   0  0  0  0  0  0  0  0  0  0  0  0
   -6.5468  -16.7838   -4.6947 H   0  0  0  0  0  0  0  0  0  0  0  0
   -3.5569  -14.9429   -7.2120 H   0  0  0  0  0  0  0  0  0  0  0  0
 32 30  1  0
 19  8  1  0
 33 30  1  0
 20  8  2  0
 30 29  1  0
 30 31  1  0
  8 15  1  0
 29 28  1  0
 15  7  1  0
 15  9  1  0
  7  6  2  0
 34 28  2  0
 34 24  1  0
 28 27  1  0
 22  4  2  0
  9 21  1  0
  9  5  2  0
  6 13  1  0
  6  5  1  0
 23 24  1  0
 23 17  1  0
  4 13  1  0
  4 12  1  0
 21  2  2  0
 24 25  2  0
 18 12  1  0
 18 17  1  0
 18 14  1  0
 27 26  2  0
  5 10  1  0
 12  3  1  0
 17 16  2  0
 14  1  1  0
  1  3  1  0
  2 11  1  0
 25 26  1  0
 10 11  2  0
  1 35  1  0
  1 36  1  0
  2 37  1  0
  3 38  1  0
  3 39  1  0
  7 40  1  0
 10 41  1  0
 11 42  1  0
 13 43  1  0
 14 44  1  0
 14 45  1  0
 18 46  1  0
 19 47  1  0
 19 48  1  0
 21 49  1  0
 23 50  1  0
 25 51  1  0
 26 52  1  0
 27 53  1  0
 34 54  1  0
A    1
C4
A    2
C14
A    3
C5
A    4
C6
A    5
C11
A    6
C7
A    7
C8
A    8
C9
A    9
C10
A   10
C12
A   11
C13
A   12
N1
A   13
N2
A   14
C3
A   15
N3
A   16
O1
A   17
C1
A   18
C2
A   19
N4
A   20
O2
A   21
C15
A   22
O3
A   23
N5
A   24
C16
A   25
C17
A   26
C18
A   27
C19
A   28
C20
A   29
O4
A   30
C21
A   31
F1
A   32
F2
A   33
F3
A   34
C22
M  END
