5NAW_8RZ_A_301
     RDKit          3D

 55 59  0  0  0  0  0  0  0  0999 V2000
   10.9750   10.3440    0.5710 C   0  0  0  0  0  0  0  0  0  0  0  0
    3.2660    8.6320    2.0710 C   0  0  0  0  0  0  0  0  0  0  0  0
    9.7250    9.5870    0.3920 C   0  0  0  0  0  0  0  0  0  0  0  0
   11.0570    8.9640    0.0870 C   0  0  0  0  0  0  0  0  0  0  0  0
    4.4180    6.2270    1.4250 C   0  0  0  0  0  0  0  0  0  0  0  0
    8.2040    8.5030    1.9610 C   0  0  0  0  0  0  0  0  0  0  0  0
    6.5220    7.0230    1.0660 C   0  0  0  0  0  0  0  0  0  0  0  0
    6.5060    5.7150    0.7750 C   0  0  0  0  0  0  0  0  0  0  0  0
    4.9020    3.8680    0.7840 C   0  0  0  0  0  0  0  0  0  0  0  0
    5.2150    7.3790    1.4600 C   0  0  0  0  0  0  0  0  0  0  0  0
    4.6150    8.6130    1.8300 C   0  0  0  0  0  0  0  0  0  0  0  0
    9.1660    9.3970    1.6720 N   0  0  0  0  0  0  0  0  0  0  0  0
    7.6420    7.8720    0.9210 N   0  0  0  0  0  0  0  0  0  0  0  0
   11.1040   10.7140    2.0170 C   0  0  0  0  0  0  0  0  0  0  0  0
    5.2560    5.1600    0.9930 N   0  0  0  0  0  0  0  0  0  0  0  0
    8.3730   11.3080    3.6260 O   0  0  0  0  0  0  0  0  0  0  0  0
    9.3430   10.5880    3.8310 C   0  0  0  0  0  0  0  0  0  0  0  0
   10.0250    9.8930    2.6960 C   0  0  0  0  0  0  0  0  0  0  0  0
    5.7470    3.1450    0.0550 N   0  0  0  0  0  0  0  0  0  0  0  0
    3.8370    3.4640    1.2160 O   0  0  0  0  0  0  0  0  0  0  0  0
    2.5180    7.4610    2.1000 C   0  0  0  0  0  0  0  0  0  0  0  0
    3.0750    6.2490    1.7360 C   0  0  0  0  0  0  0  0  0  0  0  0
    7.8910    8.2540    3.1090 O   0  0  0  0  0  0  0  0  0  0  0  0
    9.8760   10.3890    5.0470 N   0  0  0  0  0  0  0  0  0  0  0  0
    9.5120   10.9740    6.2480 C   0  0  0  0  0  0  0  0  0  0  0  0
    9.1460   12.3220    6.3070 C   0  0  0  0  0  0  0  0  0  0  0  0
    8.7770   12.8950    7.5120 C   0  0  0  0  0  0  0  0  0  0  0  0
    8.8640   12.1520    8.6630 C   0  0  0  0  0  0  0  0  0  0  0  0
    9.2540   10.8120    8.5950 C   0  0  0  0  0  0  0  0  0  0  0  0
    9.3460   10.0580    9.7950 O   0  0  0  0  0  0  0  0  0  0  0  0
    8.3350    9.2730   10.1120 C   0  0  0  0  0  0  0  0  0  0  0  0
    8.5910    8.7520   11.2610 F   0  0  0  0  0  0  0  0  0  0  0  0
    8.1960    8.3230    9.2460 F   0  0  0  0  0  0  0  0  0  0  0  0
    7.2300    9.9870   10.1550 F   0  0  0  0  0  0  0  0  0  0  0  0
    9.6120   10.2330    7.3960 C   0  0  0  0  0  0  0  0  0  0  0  0
   11.4962   11.2357    0.1926 H   0  0  0  0  0  0  0  0  0  0  0  0
    2.7642    9.5952    2.2453 H   0  0  0  0  0  0  0  0  0  0  0  0
    8.7891    9.6118   -0.1855 H   0  0  0  0  0  0  0  0  0  0  0  0
   11.4584    8.1740    0.7388 H   0  0  0  0  0  0  0  0  0  0  0  0
   11.5054    8.4684   -0.7866 H   0  0  0  0  0  0  0  0  0  0  0  0
    7.3772    5.1522    0.4086 H   0  0  0  0  0  0  0  0  0  0  0  0
    5.2175    9.5288    1.9206 H   0  0  0  0  0  0  0  0  0  0  0  0
    8.0410    8.0110   -0.0183 H   0  0  0  0  0  0  0  0  0  0  0  0
   12.0995   10.4488    2.4024 H   0  0  0  0  0  0  0  0  0  0  0  0
   10.9914   11.7941    2.1922 H   0  0  0  0  0  0  0  0  0  0  0  0
   10.4750    9.0393    3.2239 H   0  0  0  0  0  0  0  0  0  0  0  0
    6.4458    2.5471    0.5187 H   0  0  0  0  0  0  0  0  0  0  0  0
    5.7027    3.1829   -0.9733 H   0  0  0  0  0  0  0  0  0  0  0  0
    1.4656    7.4991    2.4178 H   0  0  0  0  0  0  0  0  0  0  0  0
    2.4671    5.3331    1.6959 H   0  0  0  0  0  0  0  0  0  0  0  0
   10.6543    9.7159    5.0922 H   0  0  0  0  0  0  0  0  0  0  0  0
    9.1513   12.9307    5.3908 H   0  0  0  0  0  0  0  0  0  0  0  0
    8.4180   13.9342    7.5468 H   0  0  0  0  0  0  0  0  0  0  0  0
    8.6276   12.6097    9.6349 H   0  0  0  0  0  0  0  0  0  0  0  0
    9.9717    9.1940    7.3617 H   0  0  0  0  0  0  0  0  0  0  0  0
 20  9  2  0
  4  3  1  0
  4  1  1  0
  3  1  1  0
  3 12  1  0
  1 14  1  0
  9 15  1  0
  9 19  1  0
  8 15  1  0
  8  7  2  0
 13  7  1  0
 13  6  1  0
 15  5  1  0
  7 10  1  0
  5 10  2  0
  5 22  1  0
 10 11  1  0
 12  6  1  0
 12 18  1  0
 22 21  2  0
 11  2  2  0
  6 23  2  0
 14 18  1  0
  2 21  1  0
 18 17  1  0
 16 17  2  0
 17 24  1  0
 24 25  1  0
 25 26  2  0
 25 35  1  0
 26 27  1  0
 35 29  2  0
 27 28  2  0
 29 28  1  0
 29 30  1  0
 33 31  1  0
 30 31  1  0
 31 34  1  0
 31 32  1  0
  1 36  1  0
  2 37  1  0
  3 38  1  0
  4 39  1  0
  4 40  1  0
  8 41  1  0
 11 42  1  0
 13 43  1  0
 14 44  1  0
 14 45  1  0
 18 46  1  0
 19 47  1  0
 19 48  1  0
 21 49  1  0
 22 50  1  0
 24 51  1  0
 26 52  1  0
 27 53  1  0
 28 54  1  0
 35 55  1  0
A    1
C4
A    2
C14
A    3
C5
A    4
C6
A    5
C11
A    6
C7
A    7
C8
A    8
C9
A    9
C10
A   10
C12
A   11
C13
A   12
N1
A   13
N2
A   14
C3
A   15
N3
A   16
O1
A   17
C1
A   18
C2
A   19
N4
A   20
O2
A   21
C15
A   22
C16
A   23
O3
A   24
N5
A   25
C17
A   26
C18
A   27
C19
A   28
C20
A   29
C21
A   30
O4
A   31
C22
A   32
F1
A   33
F2
A   34
F3
A   35
C23
M  END
