5NB7_8NQ_A_303
     RDKit          3D

 50 54  0  0  0  0  0  0  0  0999 V2000
   10.8980   10.7360    1.3750 C   0  0  0  0  0  0  0  0  0  0  0  0
    4.3300    6.6170    1.6370 C   0  0  0  0  0  0  0  0  0  0  0  0
    9.6360   10.1210    1.0270 C   0  0  0  0  0  0  0  0  0  0  0  0
   10.9090    9.6470    0.4740 C   0  0  0  0  0  0  0  0  0  0  0  0
    3.1490    9.0760    1.8770 C   0  0  0  0  0  0  0  0  0  0  0  0
    8.0870    8.6800    2.1990 C   0  0  0  0  0  0  0  0  0  0  0  0
    7.4290    8.2990    0.8890 C   0  0  0  0  0  0  0  0  0  0  0  0
    5.0450    7.7890    1.4080 C   0  0  0  0  0  0  0  0  0  0  0  0
    4.4800    9.0570    1.5660 C   0  0  0  0  0  0  0  0  0  0  0  0
    2.4010    7.9350    2.1070 C   0  0  0  0  0  0  0  0  0  0  0  0
    2.9530    6.6740    1.9600 C   0  0  0  0  0  0  0  0  0  0  0  0
    9.0720    9.5510    2.1820 N   0  0  0  0  0  0  0  0  0  0  0  0
    6.3090    7.4170    1.0960 N   0  0  0  0  0  0  0  0  0  0  0  0
   11.0670   10.7170    2.8490 C   0  0  0  0  0  0  0  0  0  0  0  0
    5.9450    3.3760    0.9240 N   0  0  0  0  0  0  0  0  0  0  0  0
    8.1170   11.1750    4.2590 O   0  0  0  0  0  0  0  0  0  0  0  0
    9.0460   10.4340    4.4920 C   0  0  0  0  0  0  0  0  0  0  0  0
    9.8620    9.9120    3.3160 C   0  0  0  0  0  0  0  0  0  0  0  0
    5.2450    5.5660    1.3780 C   0  0  0  0  0  0  0  0  0  0  0  0
    4.9950    4.1500    1.4090 C   0  0  0  0  0  0  0  0  0  0  0  0
    3.9400    3.7100    1.9020 O   0  0  0  0  0  0  0  0  0  0  0  0
    6.4290    6.0940    1.0640 N   0  0  0  0  0  0  0  0  0  0  0  0
    7.7530    8.1520    3.2440 O   0  0  0  0  0  0  0  0  0  0  0  0
    9.4440   10.0320    5.7390 N   0  0  0  0  0  0  0  0  0  0  0  0
    8.7330   10.2340    6.9600 C   0  0  0  0  0  0  0  0  0  0  0  0
    7.8150   11.2390    7.1200 C   0  0  0  0  0  0  0  0  0  0  0  0
    7.1160   11.2920    8.3340 C   0  0  0  0  0  0  0  0  0  0  0  0
    7.2900   10.3040    9.2490 C   0  0  0  0  0  0  0  0  0  0  0  0
    8.2390    9.3520    9.0750 C   0  0  0  0  0  0  0  0  0  0  0  0
    8.4880    7.9680   10.2790 Br  0  0  0  0  0  0  0  0  0  0  0  0
    8.9250    9.2850    7.9030 N   0  0  0  0  0  0  0  0  0  0  0  0
   11.4766   11.6673    1.2861 H   0  0  0  0  0  0  0  0  0  0  0  0
    8.6760   10.3384    0.5360 H   0  0  0  0  0  0  0  0  0  0  0  0
   11.3179    8.6762    0.7907 H   0  0  0  0  0  0  0  0  0  0  0  0
   11.3015    9.4826   -0.5403 H   0  0  0  0  0  0  0  0  0  0  0  0
    2.6453   10.0513    1.9483 H   0  0  0  0  0  0  0  0  0  0  0  0
    8.1690    7.7930    0.2515 H   0  0  0  0  0  0  0  0  0  0  0  0
    7.0601    9.2174    0.4089 H   0  0  0  0  0  0  0  0  0  0  0  0
    5.0676    9.9794    1.4479 H   0  0  0  0  0  0  0  0  0  0  0  0
    1.3486    8.0316    2.4122 H   0  0  0  0  0  0  0  0  0  0  0  0
    2.3516    5.7619    2.0878 H   0  0  0  0  0  0  0  0  0  0  0  0
   12.0079   10.2233    3.1337 H   0  0  0  0  0  0  0  0  0  0  0  0
   11.1191   11.7214    3.2945 H   0  0  0  0  0  0  0  0  0  0  0  0
    6.5707    2.8662    1.5639 H   0  0  0  0  0  0  0  0  0  0  0  0
    6.0617    3.2809   -0.0949 H   0  0  0  0  0  0  0  0  0  0  0  0
   10.2916    9.0178    3.7912 H   0  0  0  0  0  0  0  0  0  0  0  0
   10.3442    9.5354    5.8020 H   0  0  0  0  0  0  0  0  0  0  0  0
    7.6333   11.9771    6.3249 H   0  0  0  0  0  0  0  0  0  0  0  0
    6.4319   12.1275    8.5437 H   0  0  0  0  0  0  0  0  0  0  0  0
    6.6516   10.2758   10.1444 H   0  0  0  0  0  0  0  0  0  0  0  0
  4  3  1  0
  4  1  1  0
  7 13  1  0
  7  6  1  0
 21 20  2  0
  3  1  1  0
  3 12  1  0
 22 13  1  0
 22 19  2  0
 13  8  1  0
  1 14  1  0
 19 20  1  0
 19  2  1  0
 20 15  1  0
  8  9  1  0
  8  2  2  0
  9  5  2  0
  2 11  1  0
  5 10  1  0
 11 10  2  0
 12  6  1  0
 12 18  1  0
  6 23  2  0
 14 18  1  0
 18 17  1  0
 16 17  2  0
 17 24  1  0
 24 25  1  0
 25 26  2  0
 25 31  1  0
 26 27  1  0
 31 29  2  0
 27 28  2  0
 29 28  1  0
 29 30  1  0
  1 32  1  0
  3 33  1  0
  4 34  1  0
  4 35  1  0
  5 36  1  0
  7 37  1  0
  7 38  1  0
  9 39  1  0
 10 40  1  0
 11 41  1  0
 14 42  1  0
 14 43  1  0
 15 44  1  0
 15 45  1  0
 18 46  1  0
 24 47  1  0
 26 48  1  0
 27 49  1  0
 28 50  1  0
A    1
C4
A    2
C14
A    3
C5
A    4
C6
A    5
C11
A    6
C7
A    7
C8
A    8
C9
A    9
C10
A   10
C12
A   11
C13
A   12
N1
A   13
N2
A   14
C3
A   15
N3
A   16
O1
A   17
C1
A   18
C2
A   19
C15
A   20
C16
A   21
O2
A   22
N4
A   23
O3
A   24
N5
A   25
C17
A   26
C18
A   27
C19
A   28
C20
A   29
C21
A   30
BR1
A   31
N6
M  END
