5NDZ_8UN_A_2201
     RDKit          3D

 65 70  0  0  0  0  0  0  0  0999 V2000
   -0.9200   14.1590   48.7620 C   0  0  0  0  0  0  0  0  0  0  0  0
   -0.3640   13.9110   47.4910 C   0  0  0  0  0  0  0  0  0  0  0  0
    0.7050   13.0000   47.3700 C   0  0  0  0  0  0  0  0  0  0  0  0
    1.2290   12.3350   48.5120 C   0  0  0  0  0  0  0  0  0  0  0  0
    0.6660   12.5990   49.7760 C   0  0  0  0  0  0  0  0  0  0  0  0
   -0.4160   13.5060   49.9090 C   0  0  0  0  0  0  0  0  0  0  0  0
   -1.4600   12.4990   53.3890 C   0  0  0  0  0  0  0  0  0  0  0  0
   -1.7770   13.5560   54.2780 C   0  0  0  0  0  0  0  0  0  0  0  0
   -2.2140   13.2770   55.5870 C   0  0  0  0  0  0  0  0  0  0  0  0
   -2.3380   11.9450   56.0270 C   0  0  0  0  0  0  0  0  0  0  0  0
   -2.0230   10.8880   55.1500 C   0  0  0  0  0  0  0  0  0  0  0  0
   -1.5850   11.1650   53.8400 C   0  0  0  0  0  0  0  0  0  0  0  0
    2.2040   14.6750   43.1850 C   0  0  0  0  0  0  0  0  0  0  0  0
    1.6750   14.4240   44.6150 C   0  0  0  0  0  0  0  0  0  0  0  0
    2.7160   14.9780   45.6130 C   0  0  0  0  0  0  0  0  0  0  0  0
    3.4070   16.7810   43.9790 C   0  0  0  0  0  0  0  0  0  0  0  0
   -2.7910   11.6720   57.3830 C   0  0  0  0  0  0  0  0  0  0  0  0
    2.2620   11.4960   48.1730 N   0  0  0  0  0  0  0  0  0  0  0  0
    2.3630   11.6550   46.8510 C   0  0  0  0  0  0  0  0  0  0  0  0
    1.4730   12.5320   46.2990 N   0  0  0  0  0  0  0  0  0  0  0  0
    3.3780   10.9020   46.1220 C   0  0  0  0  0  0  0  0  0  0  0  0
    1.3200   12.9340   44.8910 C   0  0  0  0  0  0  0  0  0  0  0  0
   -0.0330   12.4760   44.3120 C   0  0  0  0  0  0  0  0  0  0  0  0
   -1.0210   13.7750   51.2560 C   0  0  0  0  0  0  0  0  0  0  0  0
   -1.0070   12.6950   52.0560 N   0  0  0  0  0  0  0  0  0  0  0  0
   -1.4720   14.8850   51.5330 O   0  0  0  0  0  0  0  0  0  0  0  0
    4.6800   11.4280   46.0500 C   0  0  0  0  0  0  0  0  0  0  0  0
    5.6650   10.7140   45.3640 C   0  0  0  0  0  0  0  0  0  0  0  0
    5.3860    9.5160   44.7490 C   0  0  0  0  0  0  0  0  0  0  0  0
    4.1010    8.9490   44.8000 C   0  0  0  0  0  0  0  0  0  0  0  0
    3.0900    9.6570   45.4920 C   0  0  0  0  0  0  0  0  0  0  0  0
    6.5180    9.0450   44.1670 O   0  0  0  0  0  0  0  0  0  0  0  0
    7.5500    9.8550   44.6720 C   0  0  0  0  0  0  0  0  0  0  0  0
    6.9690   11.0290   45.1770 O   0  0  0  0  0  0  0  0  0  0  0  0
    1.3450    8.8960   45.5520 Br  0  0  0  0  0  0  0  0  0  0  0  0
    2.4520   16.1740   42.9380 C   0  0  0  0  0  0  0  0  0  0  0  0
    2.9360   16.4850   45.4090 C   0  0  0  0  0  0  0  0  0  0  0  0
   -3.1520   11.4620   58.4630 N   0  0  0  0  0  0  0  0  0  0  0  0
   -1.7549   14.8682   48.8620 H   0  0  0  0  0  0  0  0  0  0  0  0
   -0.7603   14.4233   46.6019 H   0  0  0  0  0  0  0  0  0  0  0  0
    1.0693   12.0971   50.6679 H   0  0  0  0  0  0  0  0  0  0  0  0
   -1.6812   14.5996   53.9438 H   0  0  0  0  0  0  0  0  0  0  0  0
   -2.4599   14.1038   56.2696 H   0  0  0  0  0  0  0  0  0  0  0  0
   -2.1192    9.8458   55.4885 H   0  0  0  0  0  0  0  0  0  0  0  0
   -1.3379   10.3352   53.1615 H   0  0  0  0  0  0  0  0  0  0  0  0
    1.4628   14.3096   42.4590 H   0  0  0  0  0  0  0  0  0  0  0  0
    3.1581   14.1403   43.0679 H   0  0  0  0  0  0  0  0  0  0  0  0
    0.7188   14.9534   44.7389 H   0  0  0  0  0  0  0  0  0  0  0  0
    2.3580   14.8034   46.6384 H   0  0  0  0  0  0  0  0  0  0  0  0
    3.6716   14.4607   45.4418 H   0  0  0  0  0  0  0  0  0  0  0  0
    4.4104   16.3533   43.8367 H   0  0  0  0  0  0  0  0  0  0  0  0
    3.4247   17.8719   43.8387 H   0  0  0  0  0  0  0  0  0  0  0  0
    2.0884   12.3890   44.3231 H   0  0  0  0  0  0  0  0  0  0  0  0
   -0.7239   12.2421   45.1354 H   0  0  0  0  0  0  0  0  0  0  0  0
   -0.4583   13.2802   43.6937 H   0  0  0  0  0  0  0  0  0  0  0  0
    0.1176   11.5788   43.6937 H   0  0  0  0  0  0  0  0  0  0  0  0
   -0.5925   11.8566   51.6245 H   0  0  0  0  0  0  0  0  0  0  0  0
    4.9197   12.3894   46.5278 H   0  0  0  0  0  0  0  0  0  0  0  0
    3.8877    7.9842   44.3167 H   0  0  0  0  0  0  0  0  0  0  0  0
    8.0815    9.3251   45.4762 H   0  0  0  0  0  0  0  0  0  0  0  0
    8.2719   10.0957   43.8776 H   0  0  0  0  0  0  0  0  0  0  0  0
    2.8909   16.3008   41.9374 H   0  0  0  0  0  0  0  0  0  0  0  0
    1.4867   16.6951   43.0191 H   0  0  0  0  0  0  0  0  0  0  0  0
    3.6985   16.8371   46.1194 H   0  0  0  0  0  0  0  0  0  0  0  0
    1.9822   17.0057   45.5797 H   0  0  0  0  0  0  0  0  0  0  0  0
 36 13  1  0
 36 16  1  0
 13 14  1  0
 16 37  1  0
 32 33  1  0
 32 29  1  0
 23 22  1  0
 14 22  1  0
 14 15  1  0
 33 34  1  0
 29 30  2  0
 29 28  1  0
 30 31  1  0
 22 20  1  0
 34 28  1  0
 28 27  2  0
 37 15  1  0
 31 35  1  0
 31 21  2  0
 27 21  1  0
 21 19  1  0
 20 19  1  0
 20  3  1  0
 19 18  2  0
  3  2  1  0
  3  4  2  0
  2  1  2  0
 18  4  1  0
  4  5  1  0
  1  6  1  0
  5  6  2  0
  6 24  1  0
 24 26  2  0
 24 25  1  0
 25  7  1  0
  7 12  1  0
  7  8  2  0
 12 11  2  0
  8  9  1  0
 11 10  1  0
  9 10  2  0
 10 17  1  0
 17 38  3  0
  1 39  1  0
  2 40  1  0
  5 41  1  0
  8 42  1  0
  9 43  1  0
 11 44  1  0
 12 45  1  0
 13 46  1  0
 13 47  1  0
 14 48  1  0
 15 49  1  0
 15 50  1  0
 16 51  1  0
 16 52  1  0
 22 53  1  0
 23 54  1  0
 23 55  1  0
 23 56  1  0
 25 57  1  0
 27 58  1  0
 30 59  1  0
 33 60  1  0
 33 61  1  0
 36 62  1  0
 36 63  1  0
 37 64  1  0
 37 65  1  0
A    1
C1
A    2
C2
A    3
C3
A    4
C4
A    5
C5
A    6
C6
A    7
C12
A    8
C13
A    9
C14
A   10
C15
A   11
C16
A   12
C17
A   13
C25
A   14
C26
A   15
C27
A   16
C29
A   17
C30
A   18
N1
A   19
C7
A   20
N2
A   21
C8
A   22
C9
A   23
C10
A   24
C11
A   25
N3
A   26
O1
A   27
C18
A   28
C19
A   29
C20
A   30
C21
A   31
C22
A   32
O2
A   33
C23
A   34
O3
A   35
BR1
A   36
C24
A   37
C28
A   38
N4
M  END
