5NEB_8VE_B_309
     RDKit          3D

 26 27  0  0  0  0  0  0  0  0999 V2000
   -5.9880   -1.0420  -10.5850 N   0  0  0  0  0  0  0  0  0  0  0  0
   -7.0470   -4.2310   -9.6810 N   0  0  0  0  0  0  0  0  0  0  0  0
   -5.4530   -2.5860   -8.8400 C   0  0  0  0  0  0  0  0  0  0  0  0
   -5.8700   -4.0820   -8.7010 C   0  0  0  0  0  0  0  0  0  0  0  0
   -6.5900   -1.2440  -11.9820 C   0  0  0  0  0  0  0  0  0  0  0  0
   -2.8940   -2.7590   -9.4990 C   0  0  0  0  0  0  0  0  0  0  0  0
   -6.3290   -4.6540   -7.3200 C   0  0  0  0  0  0  0  0  0  0  0  0
   -4.2740   -2.1810   -9.7540 C   0  0  0  0  0  0  0  0  0  0  0  0
   -4.5670   -1.3500  -10.6950 N   0  0  0  0  0  0  0  0  0  0  0  0
   -7.7400   -2.8670   -9.7680 C   0  0  0  0  0  0  0  0  0  0  0  0
   -6.6330   -1.8330   -9.4330 C   0  0  0  0  0  0  0  0  0  0  0  0
   -2.6830   -3.3010   -8.3890 O   0  0  0  0  0  0  0  0  0  0  0  0
   -7.3830   -5.3310   -7.2450 O   0  0  0  0  0  0  0  0  0  0  0  0
   -2.0380   -2.6590  -10.4100 O   0  0  0  0  0  0  0  0  0  0  0  0
   -5.6210   -4.4220   -6.3190 O   0  0  0  0  0  0  0  0  0  0  0  0
   -7.7076   -4.9409   -9.3337 H   0  0  0  0  0  0  0  0  0  0  0  0
   -5.1301   -2.3537   -7.8144 H   0  0  0  0  0  0  0  0  0  0  0  0
   -4.9514   -4.6590   -8.8835 H   0  0  0  0  0  0  0  0  0  0  0  0
   -7.6289   -1.5926  -11.8867 H   0  0  0  0  0  0  0  0  0  0  0  0
   -6.5720   -0.2906  -12.5304 H   0  0  0  0  0  0  0  0  0  0  0  0
   -6.0006   -1.9936  -12.5304 H   0  0  0  0  0  0  0  0  0  0  0  0
   -8.1340   -2.6973  -10.7809 H   0  0  0  0  0  0  0  0  0  0  0  0
   -8.5960   -2.7935   -9.0811 H   0  0  0  0  0  0  0  0  0  0  0  0
   -7.1678   -1.1137   -8.7954 H   0  0  0  0  0  0  0  0  0  0  0  0
   -2.8752   -2.8074   -7.5526 H   0  0  0  0  0  0  0  0  0  0  0  0
   -5.9937   -4.5441   -5.4100 H   0  0  0  0  0  0  0  0  0  0  0  0
  5  1  1  0
  9  1  1  0
  9  8  2  0
  1 11  1  0
 14  6  2  0
 10  2  1  0
 10 11  1  0
  8  6  1  0
  8  3  1  0
  2  4  1  0
  6 12  1  0
 11  3  1  0
  3  4  1  0
  4  7  1  0
  7 13  2  0
  7 15  1  0
  2 16  1  0
  3 17  1  0
  4 18  1  0
  5 19  1  0
  5 20  1  0
  5 21  1  0
 10 22  1  0
 10 23  1  0
 11 24  1  0
 12 25  1  0
 15 26  1  0
A    1
N1
A    2
N3
A    3
C4
A    4
C5
A    5
C6
A    6
C7
A    7
C8
A    8
C1
A    9
N2
A   10
C2
A   11
C3
A   12
O1
A   13
O2
A   14
O3
A   15
O4
M  END
