5NF9_8VW_A_301
     RDKit          3D

 68 70  0  0  0  0  0  0  0  0999 V2000
   27.0040  -12.6120   -2.3550 O   0  0  0  0  0  0  0  0  0  0  0  0
   27.4210  -11.5110   -2.0100 C   0  0  0  0  0  0  0  0  0  0  0  0
   28.8710  -11.1370   -2.1240 C   0  0  0  0  0  0  0  0  0  0  0  0
   26.6130  -10.5660   -1.5040 N   0  0  0  0  0  0  0  0  0  0  0  0
   25.2040  -10.7430   -1.3030 C   0  0  0  0  0  0  0  0  0  0  0  0
   24.8400   -9.8420   -0.0960 C   0  0  0  0  0  0  0  0  0  0  0  0
   25.5050  -10.3600    1.0850 N   0  0  0  0  0  0  0  0  0  0  0  0
   26.6580   -9.8950    1.5970 C   0  0  0  0  0  0  0  0  0  0  0  0
   27.1270  -10.4270    2.9390 C   0  0  0  0  0  0  0  0  0  0  0  0
   26.7040  -11.6530    3.5280 C   0  0  0  0  0  0  0  0  0  0  0  0
   27.1560  -11.9810    4.8290 C   0  0  0  0  0  0  0  0  0  0  0  0
   28.0180  -11.0780    5.5060 C   0  0  0  0  0  0  0  0  0  0  0  0
   28.4380   -9.8700    4.8980 C   0  0  0  0  0  0  0  0  0  0  0  0
   29.2890   -8.9850    5.5150 O   0  0  0  0  0  0  0  0  0  0  0  0
   29.4300   -7.6010    5.1720 C   0  0  0  0  0  0  0  0  0  0  0  0
   27.9820   -9.5550    3.6290 C   0  0  0  0  0  0  0  0  0  0  0  0
   27.2590   -8.9700    1.0750 O   0  0  0  0  0  0  0  0  0  0  0  0
   24.4710  -10.2870   -2.4520 O   0  0  0  0  0  0  0  0  0  0  0  0
   23.0630  -10.4800   -2.3050 C   0  0  0  0  0  0  0  0  0  0  0  0
   22.4420  -10.1140   -3.6600 C   0  0  0  0  0  0  0  0  0  0  0  0
   22.6220   -8.7100   -4.0180 O   0  0  0  0  0  0  0  0  0  0  0  0
   22.6120   -9.5450   -1.1570 C   0  0  0  0  0  0  0  0  0  0  0  0
   23.3530   -9.8850    0.1270 C   0  0  0  0  0  0  0  0  0  0  0  0
   23.0270   -9.0380    1.2490 O   0  0  0  0  0  0  0  0  0  0  0  0
   21.2450   -9.7230   -0.9340 O   0  0  0  0  0  0  0  0  0  0  0  0
   20.5030   -8.5660   -1.3500 C   0  0  0  0  0  0  0  0  0  0  0  0
   19.0720   -9.0000   -1.3250 C   0  0  0  0  0  0  0  0  0  0  0  0
   18.8030  -10.0030   -2.3280 O   0  0  0  0  0  0  0  0  0  0  0  0
   18.1970   -7.7860   -1.6300 C   0  0  0  0  0  0  0  0  0  0  0  0
   16.8290   -8.1510   -1.5050 O   0  0  0  0  0  0  0  0  0  0  0  0
   18.5290   -6.6300   -0.7080 C   0  0  0  0  0  0  0  0  0  0  0  0
   18.1230   -6.9660    0.6410 O   0  0  0  0  0  0  0  0  0  0  0  0
   19.9990   -6.2750   -0.8310 C   0  0  0  0  0  0  0  0  0  0  0  0
   20.8090   -7.4240   -0.4970 O   0  0  0  0  0  0  0  0  0  0  0  0
   20.4650   -5.1130    0.0560 C   0  0  0  0  0  0  0  0  0  0  0  0
   21.8380   -4.9880   -0.2400 O   0  0  0  0  0  0  0  0  0  0  0  0
   29.3012  -11.0260   -1.1177 H   0  0  0  0  0  0  0  0  0  0  0  0
   29.4112  -11.9252   -2.6689 H   0  0  0  0  0  0  0  0  0  0  0  0
   28.9626  -10.1858   -2.6689 H   0  0  0  0  0  0  0  0  0  0  0  0
   27.0295   -9.6603   -1.2448 H   0  0  0  0  0  0  0  0  0  0  0  0
   24.9579  -11.8021   -1.1365 H   0  0  0  0  0  0  0  0  0  0  0  0
   25.1561   -8.8068   -0.2922 H   0  0  0  0  0  0  0  0  0  0  0  0
   25.0566  -11.1494    1.5715 H   0  0  0  0  0  0  0  0  0  0  0  0
   26.0364  -12.3345    2.9804 H   0  0  0  0  0  0  0  0  0  0  0  0
   26.8443  -12.9209    5.3081 H   0  0  0  0  0  0  0  0  0  0  0  0
   28.3657  -11.3213    6.5209 H   0  0  0  0  0  0  0  0  0  0  0  0
   29.4912   -6.9998    6.0912 H   0  0  0  0  0  0  0  0  0  0  0  0
   30.3470   -7.4614    4.5808 H   0  0  0  0  0  0  0  0  0  0  0  0
   28.5600   -7.2793    4.5808 H   0  0  0  0  0  0  0  0  0  0  0  0
   28.2934   -8.6114    3.1573 H   0  0  0  0  0  0  0  0  0  0  0  0
   22.7593  -11.5058   -2.0490 H   0  0  0  0  0  0  0  0  0  0  0  0
   21.3639  -10.3283   -3.6191 H   0  0  0  0  0  0  0  0  0  0  0  0
   22.9554  -10.7137   -4.4260 H   0  0  0  0  0  0  0  0  0  0  0  0
   22.6918   -8.1657   -3.1940 H   0  0  0  0  0  0  0  0  0  0  0  0
   22.8301   -8.5053   -1.4424 H   0  0  0  0  0  0  0  0  0  0  0  0
   23.0196  -10.9005    0.3872 H   0  0  0  0  0  0  0  0  0  0  0  0
   23.2131   -9.5216    2.0926 H   0  0  0  0  0  0  0  0  0  0  0  0
   20.7635   -8.2124   -2.3585 H   0  0  0  0  0  0  0  0  0  0  0  0
   18.8570   -9.4248   -0.3334 H   0  0  0  0  0  0  0  0  0  0  0  0
   18.5735  -10.8586   -1.8859 H   0  0  0  0  0  0  0  0  0  0  0  0
   18.3930   -7.4539   -2.6602 H   0  0  0  0  0  0  0  0  0  0  0  0
   16.5907   -8.2146   -0.5462 H   0  0  0  0  0  0  0  0  0  0  0  0
   17.9714   -5.7264   -0.9954 H   0  0  0  0  0  0  0  0  0  0  0  0
   18.7003   -6.4883    1.2880 H   0  0  0  0  0  0  0  0  0  0  0  0
   20.1218   -5.9558   -1.8765 H   0  0  0  0  0  0  0  0  0  0  0  0
   19.9250   -4.1882   -0.1953 H   0  0  0  0  0  0  0  0  0  0  0  0
   20.2768   -5.2939    1.1246 H   0  0  0  0  0  0  0  0  0  0  0  0
   22.3544   -4.9410    0.6033 H   0  0  0  0  0  0  0  0  0  0  0  0
 21 20  1  0
 20 19  1  0
 18 19  1  0
 18  5  1  0
  1  2  2  0
 28 27  1  0
 19 22  1  0
  3  2  1  0
  2  4  1  0
 29 30  1  0
 29 27  1  0
 29 31  1  0
  4  5  1  0
 26 27  1  0
 26 25  1  0
 26 34  1  0
  5  6  1  0
 22 25  1  0
 22 23  1  0
 33 31  1  0
 33 34  1  0
 33 35  1  0
 31 32  1  0
 36 35  1  0
  6 23  1  0
  6  7  1  0
 23 24  1  0
 17  8  2  0
  7  8  1  0
  8  9  1  0
  9 10  2  0
  9 16  1  0
 10 11  1  0
 16 13  2  0
 11 12  2  0
 13 12  1  0
 13 14  1  0
 15 14  1  0
  3 37  1  0
  3 38  1  0
  3 39  1  0
  4 40  1  0
  5 41  1  0
  6 42  1  0
  7 43  1  0
 10 44  1  0
 11 45  1  0
 12 46  1  0
 15 47  1  0
 15 48  1  0
 15 49  1  0
 16 50  1  0
 19 51  1  0
 20 52  1  0
 20 53  1  0
 21 54  1  0
 22 55  1  0
 23 56  1  0
 24 57  1  0
 26 58  1  0
 27 59  1  0
 28 60  1  0
 29 61  1  0
 30 62  1  0
 31 63  1  0
 32 64  1  0
 33 65  1  0
 35 66  1  0
 35 67  1  0
 36 68  1  0
A    1
O35
A    2
C33
A    3
C34
A    4
N1
A    5
C1,
A    6
C2,
A    7
N2
A    8
C36
A    9
C38
A   10
C39
A   11
C40
A   12
C41
A   13
C42
A   14
O44
A   15
C45
A   16
C43
A   17
O37
A   18
O5,
A   19
C5,
A   20
C6,
A   21
O6,
A   22
C4,
A   23
C3,
A   24
O3,
A   25
O1
A   26
C1
A   27
C2
A   28
O2
A   29
C3
A   30
O3
A   31
C4
A   32
O4
A   33
C5
A   34
O5
A   35
C6
A   36
O6
M  END
