5NFT_8W8_A_804
     RDKit          3D

 56 59  0  0  0  0  0  0  0  0999 V2000
    2.1760  -41.3400  -11.7720 C   0  0  0  0  0  0  0  0  0  0  0  0
    1.5950  -40.2300  -11.1870 C   0  0  0  0  0  0  0  0  0  0  0  0
    1.2700  -39.7680   -6.2470 C   0  0  0  0  0  0  0  0  0  0  0  0
    1.2870  -39.1580   -7.4860 C   0  0  0  0  0  0  0  0  0  0  0  0
    1.8130  -40.6160   -1.8360 C   0  0  0  0  0  0  0  0  0  0  0  0
    1.0260  -42.8960   -1.9170 C   0  0  0  0  0  0  0  0  0  0  0  0
   -1.0130  -39.7070   -7.9730 C   0  0  0  0  0  0  0  0  0  0  0  0
   -0.5480  -40.9060  -11.9990 C   0  0  0  0  0  0  0  0  0  0  0  0
   -2.0430  -41.0420   -6.0280 C   0  0  0  0  0  0  0  0  0  0  0  0
   -1.0430  -40.3420   -6.7410 C   0  0  0  0  0  0  0  0  0  0  0  0
    0.2290  -40.0030  -11.2920 C   0  0  0  0  0  0  0  0  0  0  0  0
    0.0670  -40.3560   -5.9080 C   0  0  0  0  0  0  0  0  0  0  0  0
    0.4100  -41.3200   -3.6170 C   0  0  0  0  0  0  0  0  0  0  0  0
    1.7570  -41.8940   -1.3130 C   0  0  0  0  0  0  0  0  0  0  0  0
   -0.1180  -37.8790  -13.9850 C   0  0  0  0  0  0  0  0  0  0  0  0
   -1.0780  -36.3840  -10.9350 C   0  0  0  0  0  0  0  0  0  0  0  0
   -0.1110  -43.9390  -13.9180 C   0  0  0  0  0  0  0  0  0  0  0  0
   -0.3940  -37.5870  -11.5600 C   0  0  0  0  0  0  0  0  0  0  0  0
   -1.6080  -41.4580   -4.8370 N   0  0  0  0  0  0  0  0  0  0  0  0
    1.1360  -40.3210   -2.9990 C   0  0  0  0  0  0  0  0  0  0  0  0
    0.3480  -42.5940   -3.0850 C   0  0  0  0  0  0  0  0  0  0  0  0
    1.3960  -42.2360  -12.4800 C   0  0  0  0  0  0  0  0  0  0  0  0
    0.1900  -39.1270   -8.3260 C   0  0  0  0  0  0  0  0  0  0  0  0
    0.0350  -42.0100  -12.6000 C   0  0  0  0  0  0  0  0  0  0  0  0
   -0.4120  -38.8040  -10.6400 C   0  0  0  0  0  0  0  0  0  0  0  0
   -0.7780  -38.3450  -15.2470 C   0  0  0  0  0  0  0  0  0  0  0  0
   -0.3280  -41.0450   -4.7820 N   0  0  0  0  0  0  0  0  0  0  0  0
   -0.9510  -37.8450  -12.8820 N   0  0  0  0  0  0  0  0  0  0  0  0
    1.0690  -37.5870  -13.9990 O   0  0  0  0  0  0  0  0  0  0  0  0
   -0.8180  -42.8610  -13.3040 O   0  0  0  0  0  0  0  0  0  0  0  0
    0.3760  -38.4170   -9.5170 O   0  0  0  0  0  0  0  0  0  0  0  0
    2.4300  -42.1520   -0.1830 F   0  0  0  0  0  0  0  0  0  0  0  0
   -0.3320  -39.5790  -15.5990 F   0  0  0  0  0  0  0  0  0  0  0  0
   -0.4360  -37.5530  -16.2860 F   0  0  0  0  0  0  0  0  0  0  0  0
   -2.1420  -38.3730  -15.2040 F   0  0  0  0  0  0  0  0  0  0  0  0
    3.2583  -41.5103  -11.6743 H   0  0  0  0  0  0  0  0  0  0  0  0
    2.2227  -39.5178  -10.6314 H   0  0  0  0  0  0  0  0  0  0  0  0
    2.1461  -39.7843   -5.5821 H   0  0  0  0  0  0  0  0  0  0  0  0
    2.2169  -38.6744   -7.8197 H   0  0  0  0  0  0  0  0  0  0  0  0
    2.3967  -39.8362   -1.3249 H   0  0  0  0  0  0  0  0  0  0  0  0
    0.9833  -43.9058   -1.4828 H   0  0  0  0  0  0  0  0  0  0  0  0
   -1.8943  -39.6674   -8.6301 H   0  0  0  0  0  0  0  0  0  0  0  0
   -1.6330  -40.7458  -12.0837 H   0  0  0  0  0  0  0  0  0  0  0  0
   -3.0588  -41.2223   -6.4095 H   0  0  0  0  0  0  0  0  0  0  0  0
   -1.0322  -36.4646   -9.8389 H   0  0  0  0  0  0  0  0  0  0  0  0
   -0.5679  -35.4640  -11.2567 H   0  0  0  0  0  0  0  0  0  0  0  0
   -2.1294  -36.3519  -11.2567 H   0  0  0  0  0  0  0  0  0  0  0  0
    0.3151  -44.5887  -13.1393 H   0  0  0  0  0  0  0  0  0  0  0  0
   -0.8028  -44.5219  -14.5438 H   0  0  0  0  0  0  0  0  0  0  0  0
    0.6993  -43.5368  -14.5438 H   0  0  0  0  0  0  0  0  0  0  0  0
    0.6730  -37.3565  -11.6960 H   0  0  0  0  0  0  0  0  0  0  0  0
    1.1731  -39.3085   -3.4274 H   0  0  0  0  0  0  0  0  0  0  0  0
   -0.2427  -43.3712   -3.5920 H   0  0  0  0  0  0  0  0  0  0  0  0
    1.8534  -43.1220  -12.9446 H   0  0  0  0  0  0  0  0  0  0  0  0
   -1.4426  -39.0893  -10.3822 H   0  0  0  0  0  0  0  0  0  0  0  0
   -1.9628  -38.0016  -12.9943 H   0  0  0  0  0  0  0  0  0  0  0  0
 34 26  1  0
 33 26  1  0
 26 35  1  0
 26 15  1  0
 29 15  2  0
 15 28  1  0
 17 30  1  0
 30 24  1  0
 28 18  1  0
 24 22  1  0
 24  8  2  0
 22  1  2  0
  8 11  1  0
  1  2  1  0
 18 16  1  0
 18 25  1  0
 11  2  2  0
 11 25  1  0
 25 31  1  0
 31 23  1  0
 23  7  2  0
 23  4  1  0
  7 10  1  0
  4  3  2  0
 10  9  1  0
 10 12  2  0
  3 12  1  0
  9 19  2  0
 12 27  1  0
 19 27  1  0
 27 13  1  0
 13 21  2  0
 13 20  1  0
 21  6  1  0
 20  5  2  0
  6 14  2  0
  5 14  1  0
 14 32  1  0
  1 36  1  0
  2 37  1  0
  3 38  1  0
  4 39  1  0
  5 40  1  0
  6 41  1  0
  7 42  1  0
  8 43  1  0
  9 44  1  0
 16 45  1  0
 16 46  1  0
 16 47  1  0
 17 48  1  0
 17 49  1  0
 17 50  1  0
 18 51  1  0
 20 52  1  0
 21 53  1  0
 22 54  1  0
 25 55  1  0
 28 56  1  0
A    1
C1
A    2
C2
A    3
C3
A    4
C7
A    5
C8
A    6
C9
A    7
C10
A    8
C11
A    9
C12
A   10
C13
A   11
C14
A   12
C15
A   13
C16
A   14
C19
A   15
C20
A   16
C21
A   17
C22
A   18
C24
A   19
N26
A   20
C4
A   21
C5
A   22
C6
A   23
C17
A   24
C18
A   25
C23
A   26
C25
A   27
N27
A   28
N28
A   29
O29
A   30
O30
A   31
O31
A   32
F32
A   33
F33
A   34
F34
A   35
F35
M  END
