5NFZ_8WB_B_501
     RDKit          3D

 40 41  0  0  0  0  0  0  0  0999 V2000
   14.3340   66.8400   42.2260 C   0  0  0  0  0  0  0  0  0  0  0  0
   15.2400   65.8270   41.8480 O   0  0  0  0  0  0  0  0  0  0  0  0
   16.3410   66.3410   41.2850 C   0  0  0  0  0  0  0  0  0  0  0  0
   16.2730   66.8000   39.9880 C   0  0  0  0  0  0  0  0  0  0  0  0
   15.1340   66.7250   39.2500 O   0  0  0  0  0  0  0  0  0  0  0  0
   14.8550   65.3820   38.9090 C   0  0  0  0  0  0  0  0  0  0  0  0
   17.3850   67.3250   39.3880 C   0  0  0  0  0  0  0  0  0  0  0  0
   17.2010   67.7480   38.1150 O   0  0  0  0  0  0  0  0  0  0  0  0
   18.3920   68.1410   37.4490 C   0  0  0  0  0  0  0  0  0  0  0  0
   18.5690   67.4040   40.1080 C   0  0  0  0  0  0  0  0  0  0  0  0
   18.6200   66.9440   41.4210 C   0  0  0  0  0  0  0  0  0  0  0  0
   17.5100   66.3910   42.0230 C   0  0  0  0  0  0  0  0  0  0  0  0
   17.5920   65.9250   43.3310 C   0  0  0  0  0  0  0  0  0  0  0  0
   17.1070   64.6570   43.5770 C   0  0  0  0  0  0  0  0  0  0  0  0
   17.0230   63.8880   44.7410 C   0  0  0  0  0  0  0  0  0  0  0  0
   17.4440   64.1700   46.0290 C   0  0  0  0  0  0  0  0  0  0  0  0
   17.2700   63.2590   47.0430 O   0  0  0  0  0  0  0  0  0  0  0  0
   17.0350   61.8870   46.7710 C   0  0  0  0  0  0  0  0  0  0  0  0
   18.0570   65.3570   46.4490 C   0  0  0  0  0  0  0  0  0  0  0  0
   18.3740   65.4540   47.6370 O   0  0  0  0  0  0  0  0  0  0  0  0
   18.3790   66.4580   45.6530 C   0  0  0  0  0  0  0  0  0  0  0  0
   18.1870   66.7340   44.3030 C   0  0  0  0  0  0  0  0  0  0  0  0
   14.2838   66.8962   43.3234 H   0  0  0  0  0  0  0  0  0  0  0  0
   14.6753   67.8056   41.8247 H   0  0  0  0  0  0  0  0  0  0  0  0
   13.3364   66.6081   41.8247 H   0  0  0  0  0  0  0  0  0  0  0  0
   14.7317   64.7886   39.8270 H   0  0  0  0  0  0  0  0  0  0  0  0
   13.9287   65.3388   38.3173 H   0  0  0  0  0  0  0  0  0  0  0  0
   15.6874   64.9734   38.3173 H   0  0  0  0  0  0  0  0  0  0  0  0
   19.1614   68.3949   38.1930 H   0  0  0  0  0  0  0  0  0  0  0  0
   18.7500   67.3134   36.8191 H   0  0  0  0  0  0  0  0  0  0  0  0
   18.1871   69.0192   36.8191 H   0  0  0  0  0  0  0  0  0  0  0  0
   19.4686   67.8308   39.6404 H   0  0  0  0  0  0  0  0  0  0  0  0
   19.5602   67.0230   41.9866 H   0  0  0  0  0  0  0  0  0  0  0  0
   16.7092   64.1536   42.6835 H   0  0  0  0  0  0  0  0  0  0  0  0
   16.5477   62.9042   44.6135 H   0  0  0  0  0  0  0  0  0  0  0  0
   16.9407   61.3363   47.7185 H   0  0  0  0  0  0  0  0  0  0  0  0
   16.1058   61.7819   46.1918 H   0  0  0  0  0  0  0  0  0  0  0  0
   17.8763   61.4787   46.1918 H   0  0  0  0  0  0  0  0  0  0  0  0
   18.8841   67.2667   46.2015 H   0  0  0  0  0  0  0  0  0  0  0  0
   18.5495   67.7131   43.9567 H   0  0  0  0  0  0  0  0  0  0  0  0
  9  8  1  0
  8  7  1  0
  6  5  1  0
  5  4  1  0
  7  4  1  0
  7 10  2  0
  4  3  2  0
 10 11  1  0
  3  2  1  0
  3 12  1  0
 11 12  2  0
  2  1  1  0
 12 13  1  0
 13 14  2  0
 13 22  1  0
 14 15  1  0
 22 21  2  0
 15 16  2  0
 21 19  1  0
 16 19  1  0
 16 17  1  0
 19 20  2  0
 18 17  1  0
  1 23  1  0
  1 24  1  0
  1 25  1  0
  6 26  1  0
  6 27  1  0
  6 28  1  0
  9 29  1  0
  9 30  1  0
  9 31  1  0
 10 32  1  0
 11 33  1  0
 14 34  1  0
 15 35  1  0
 18 36  1  0
 18 37  1  0
 18 38  1  0
 21 39  1  0
 22 40  1  0
A    1
CAV
A    2
OAU
A    3
CAD
A    4
CAC
A    5
OAS
A    6
CAT
A    7
CAB
A    8
OAQ
A    9
CAR
A   10
CAA
A   11
CAF
A   12
CAE
A   13
CAG
A   14
CAH
A   15
CAI
A   16
CAJ
A   17
OAO
A   18
CAP
A   19
CAK
A   20
OAN
A   21
CAL
A   22
CAM
M  END
