5NGB_8WH_A_1101
     RDKit          3D

 53 57  0  0  0  0  0  0  0  0999 V2000
   18.0520   -3.8160   18.1570 O   0  0  0  0  0  0  0  0  0  0  0  0
   16.9450   -3.3390   17.8530 C   0  0  0  0  0  0  0  0  0  0  0  0
   16.8090   -2.8780   16.7160 O   0  0  0  0  0  0  0  0  0  0  0  0
   15.8810   -3.3070   18.7520 C   0  0  0  0  0  0  0  0  0  0  0  0
   16.0060   -3.8200   20.0530 C   0  0  0  0  0  0  0  0  0  0  0  0
   14.6720   -2.7440   18.3360 C   0  0  0  0  0  0  0  0  0  0  0  0
   13.5950   -2.7070   19.2050 C   0  0  0  0  0  0  0  0  0  0  0  0
   13.7300   -3.2060   20.4920 C   0  0  0  0  0  0  0  0  0  0  0  0
   14.9180   -3.7890   20.9270 C   0  0  0  0  0  0  0  0  0  0  0  0
   15.0150   -4.2670   22.2570 C   0  0  0  0  0  0  0  0  0  0  0  0
   14.0910   -5.4290   22.6770 N   0  0  0  0  0  0  0  0  0  0  0  0
   14.0130   -6.6570   22.1540 C   0  0  0  0  0  0  0  0  0  0  0  0
   13.2950   -5.3560   23.6510 N   0  0  0  0  0  0  0  0  0  0  0  0
   12.7200   -6.3520   23.7920 N   0  0  0  0  0  0  0  0  0  0  0  0
   13.0960   -7.2410   22.8740 C   0  0  0  0  0  0  0  0  0  0  0  0
   12.6480   -8.4870   22.7850 C   0  0  0  0  0  0  0  0  0  0  0  0
   11.5060   -8.9120   23.4840 C   0  0  0  0  0  0  0  0  0  0  0  0
   10.7750   -8.0260   24.2710 N   0  0  0  0  0  0  0  0  0  0  0  0
   13.3320   -9.4240   22.0150 C   0  0  0  0  0  0  0  0  0  0  0  0
   12.8940  -10.7430   21.9310 C   0  0  0  0  0  0  0  0  0  0  0  0
   11.7720  -11.1520   22.6190 C   0  0  0  0  0  0  0  0  0  0  0  0
   11.0770  -10.2380   23.3960 C   0  0  0  0  0  0  0  0  0  0  0  0
    9.9510  -10.6370   24.0980 C   0  0  0  0  0  0  0  0  0  0  0  0
    9.5330  -11.7890   24.0560 O   0  0  0  0  0  0  0  0  0  0  0  0
    9.2450   -9.7460   24.8700 C   0  0  0  0  0  0  0  0  0  0  0  0
    9.6410   -8.4220   24.9840 C   0  0  0  0  0  0  0  0  0  0  0  0
    8.9920   -7.5400   25.7370 N   0  0  0  0  0  0  0  0  0  0  0  0
    9.4550   -6.1420   25.7640 C   0  0  0  0  0  0  0  0  0  0  0  0
    9.1920   -5.5790   27.0940 C   0  0  0  0  0  0  0  0  0  0  0  0
    7.7570   -5.7080   27.2920 O   0  0  0  0  0  0  0  0  0  0  0  0
    7.3710   -7.0410   27.6040 C   0  0  0  0  0  0  0  0  0  0  0  0
    7.8140   -7.9240   26.5120 C   0  0  0  0  0  0  0  0  0  0  0  0
   18.3002   -3.9230   19.1094 H   0  0  0  0  0  0  0  0  0  0  0  0
   16.9638   -4.2475   20.3844 H   0  0  0  0  0  0  0  0  0  0  0  0
   14.5761   -2.3313   17.3209 H   0  0  0  0  0  0  0  0  0  0  0  0
   12.6349   -2.2830   18.8757 H   0  0  0  0  0  0  0  0  0  0  0  0
   12.8788   -3.1398   21.1856 H   0  0  0  0  0  0  0  0  0  0  0  0
   16.0517   -4.6015   22.4098 H   0  0  0  0  0  0  0  0  0  0  0  0
   14.6910   -3.4192   22.8785 H   0  0  0  0  0  0  0  0  0  0  0  0
   14.5870   -7.0759   21.3143 H   0  0  0  0  0  0  0  0  0  0  0  0
   14.2332   -9.1171   21.4640 H   0  0  0  0  0  0  0  0  0  0  0  0
   13.4474  -11.4637   21.3111 H   0  0  0  0  0  0  0  0  0  0  0  0
   11.4306  -12.1955   22.5521 H   0  0  0  0  0  0  0  0  0  0  0  0
    8.2202   -9.7314   24.4706 H   0  0  0  0  0  0  0  0  0  0  0  0
    9.4048  -10.1320   25.8876 H   0  0  0  0  0  0  0  0  0  0  0  0
   10.5344   -6.1065   25.5550 H   0  0  0  0  0  0  0  0  0  0  0  0
    8.9209   -5.5579   25.0001 H   0  0  0  0  0  0  0  0  0  0  0  0
    9.7388   -6.1417   27.8649 H   0  0  0  0  0  0  0  0  0  0  0  0
    9.5223   -4.5323   27.1674 H   0  0  0  0  0  0  0  0  0  0  0  0
    6.2771   -7.0964   27.7052 H   0  0  0  0  0  0  0  0  0  0  0  0
    7.8319   -7.3544   28.5523 H   0  0  0  0  0  0  0  0  0  0  0  0
    6.9755   -8.0120   25.8055 H   0  0  0  0  0  0  0  0  0  0  0  0
    8.1182   -8.8499   27.0220 H   0  0  0  0  0  0  0  0  0  0  0  0
  3  2  2  0
  2  1  1  0
  2  4  1  0
  6  4  2  0
  6  7  1  0
  4  5  1  0
  7  8  2  0
  5  9  2  0
  8  9  1  0
  9 10  1  0
 20 19  2  0
 20 21  1  0
 19 16  1  0
 12 11  1  0
 12 15  2  0
 10 11  1  0
 21 22  2  0
 11 13  1  0
 16 15  1  0
 16 17  2  0
 15 14  1  0
 22 17  1  0
 22 23  1  0
 17 18  1  0
 13 14  2  0
 24 23  2  0
 23 25  1  0
 18 26  2  0
 25 26  1  0
 26 27  1  0
 27 28  1  0
 27 32  1  0
 28 29  1  0
 32 31  1  0
 29 30  1  0
 30 31  1  0
  1 33  1  0
  5 34  1  0
  6 35  1  0
  7 36  1  0
  8 37  1  0
 10 38  1  0
 10 39  1  0
 12 40  1  0
 19 41  1  0
 20 42  1  0
 21 43  1  0
 25 44  1  0
 25 45  1  0
 28 46  1  0
 28 47  1  0
 29 48  1  0
 29 49  1  0
 31 50  1  0
 31 51  1  0
 32 52  1  0
 32 53  1  0
A    1
OAX
A    2
CBB
A    3
OBC
A    4
CBA
A    5
CAZ
A    6
CBF
A    7
CBE
A    8
CBD
A    9
CAY
A   10
CAW
A   11
NAV
A   12
CAU
A   13
NAR
A   14
NAQ
A   15
CAP
A   16
CAO
A   17
CAM
A   18
NAK
A   19
CAT
A   20
CAS
A   21
CAN
A   22
CAL
A   23
CAJ
A   24
OAI
A   25
CAG
A   26
CAH
A   27
NAE
A   28
CAF
A   29
CAC
A   30
OAB
A   31
CAA
A   32
CAD
M  END
