4CXR_2BG_A_502
     RDKit          3D

 19 20  0  0  0  0  0  0  0  0999 V2000
   10.0990   -5.7100   20.6810 N   0  0  0  0  0  0  0  0  0  0  0  0
   11.1950   -6.3310   20.1910 C   0  0  0  0  0  0  0  0  0  0  0  0
   12.4770   -6.0100   20.4140 C   0  0  0  0  0  0  0  0  0  0  0  0
   13.5210   -6.7310   19.8420 C   0  0  0  0  0  0  0  0  0  0  0  0
   13.2000   -7.8060   19.0260 C   0  0  0  0  0  0  0  0  0  0  0  0
   11.8580   -8.1060   18.8210 C   0  0  0  0  0  0  0  0  0  0  0  0
   10.8970   -7.3820   19.3930 C   0  0  0  0  0  0  0  0  0  0  0  0
    9.1960   -7.5330   19.3110 S   0  0  0  0  0  0  0  0  0  0  0  0
    8.9340   -6.2380   20.3020 C   0  0  0  0  0  0  0  0  0  0  0  0
    7.5800   -5.7040   20.7370 C   0  0  0  0  0  0  0  0  0  0  0  0
    7.7590   -4.5710   21.6580 N   0  0  0  0  0  0  0  0  0  0  0  0
   12.7099   -5.1550   21.0657 H   0  0  0  0  0  0  0  0  0  0  0  0
   14.5693   -6.4567   20.0313 H   0  0  0  0  0  0  0  0  0  0  0  0
   13.9895   -8.4075   18.5518 H   0  0  0  0  0  0  0  0  0  0  0  0
   11.5854   -8.9546   18.1763 H   0  0  0  0  0  0  0  0  0  0  0  0
    7.0189   -5.3691   19.8521 H   0  0  0  0  0  0  0  0  0  0  0  0
    7.0245   -6.5027   21.2503 H   0  0  0  0  0  0  0  0  0  0  0  0
    7.7059   -4.9071   22.6302 H   0  0  0  0  0  0  0  0  0  0  0  0
    8.6789   -4.1375   21.4943 H   0  0  0  0  0  0  0  0  0  0  0  0
  6  5  2  0
  6  7  1  0
  5  4  1  0
  8  7  1  0
  8  9  1  0
  7  2  2  0
  4  3  2  0
  2  3  1  0
  2  1  1  0
  9  1  2  0
  9 10  1  0
 10 11  1  0
  3 12  1  0
  4 13  1  0
  5 14  1  0
  6 15  1  0
 10 16  1  0
 10 17  1  0
 11 18  1  0
 11 19  1  0
A    1
NAG
A    2
CAJ
A    3
CAD
A    4
CAB
A    5
CAC
A    6
CAE
A    7
CAK
A    8
SAH
A    9
CAI
A   10
CAF
A   11
NAA
M  END
