5NHF_8X5_A_402
     RDKit          3D

 55 59  0  0  0  0  0  0  0  0999 V2000
   -9.8360   16.9170   36.1490 C   0  0  0  0  0  0  0  0  0  0  0  0
  -10.0100   16.6950   37.5070 C   0  0  0  0  0  0  0  0  0  0  0  0
   -9.0000   16.1190   38.2690 C   0  0  0  0  0  0  0  0  0  0  0  0
  -10.9770   16.3350   41.3690 C   0  0  0  0  0  0  0  0  0  0  0  0
  -12.4750   16.6090   41.4070 C   0  0  0  0  0  0  0  0  0  0  0  0
  -13.1020   15.2970   41.0700 C   0  0  0  0  0  0  0  0  0  0  0  0
  -12.5110   14.2960   40.3190 C   0  0  0  0  0  0  0  0  0  0  0  0
  -13.4570   13.2330   40.2190 C   0  0  0  0  0  0  0  0  0  0  0  0
  -14.5820   13.6480   40.9040 C   0  0  0  0  0  0  0  0  0  0  0  0
  -15.8590   12.9500   41.1120 C   0  0  0  0  0  0  0  0  0  0  0  0
  -16.1020   11.6800   40.6050 C   0  0  0  0  0  0  0  0  0  0  0  0
  -17.3300   11.1220   40.9050 C   0  0  0  0  0  0  0  0  0  0  0  0
  -17.9450   12.9900   42.0480 C   0  0  0  0  0  0  0  0  0  0  0  0
  -17.6570   16.0980   45.4040 C   0  0  0  0  0  0  0  0  0  0  0  0
  -19.7570   16.8260   44.6290 C   0  0  0  0  0  0  0  0  0  0  0  0
  -20.0040   15.5500   43.8570 C   0  0  0  0  0  0  0  0  0  0  0  0
  -11.1540   14.4360   39.8070 C   0  0  0  0  0  0  0  0  0  0  0  0
  -10.5820   13.5510   39.1740 O   0  0  0  0  0  0  0  0  0  0  0  0
  -10.5710   15.6120   40.1530 N   0  0  0  0  0  0  0  0  0  0  0  0
   -9.1840   15.8680   39.7470 C   0  0  0  0  0  0  0  0  0  0  0  0
   -7.8000   15.7990   37.6440 C   0  0  0  0  0  0  0  0  0  0  0  0
   -7.6210   16.0370   36.2880 C   0  0  0  0  0  0  0  0  0  0  0  0
   -8.6400   16.5910   35.5410 C   0  0  0  0  0  0  0  0  0  0  0  0
  -14.3630   14.9060   41.4160 N   0  0  0  0  0  0  0  0  0  0  0  0
  -16.7690   13.6160   41.8400 N   0  0  0  0  0  0  0  0  0  0  0  0
  -18.2820   11.7620   41.6050 N   0  0  0  0  0  0  0  0  0  0  0  0
  -18.8640   13.6420   42.7890 N   0  0  0  0  0  0  0  0  0  0  0  0
  -18.6730   14.9280   43.4620 C   0  0  0  0  0  0  0  0  0  0  0  0
  -18.9470   16.5850   45.7880 O   0  0  0  0  0  0  0  0  0  0  0  0
  -17.7670   14.7770   44.6800 C   0  0  0  0  0  0  0  0  0  0  0  0
  -10.6525   17.3537   35.5552 H   0  0  0  0  0  0  0  0  0  0  0  0
  -10.9585   16.9781   37.9868 H   0  0  0  0  0  0  0  0  0  0  0  0
  -10.7058   15.7303   42.2470 H   0  0  0  0  0  0  0  0  0  0  0  0
  -10.4578   17.3048   41.3725 H   0  0  0  0  0  0  0  0  0  0  0  0
  -12.7497   17.3734   40.6652 H   0  0  0  0  0  0  0  0  0  0  0  0
  -12.8060   16.9930   42.3832 H   0  0  0  0  0  0  0  0  0  0  0  0
  -13.3180   12.2734   39.6995 H   0  0  0  0  0  0  0  0  0  0  0  0
  -15.3565   11.1467   39.9969 H   0  0  0  0  0  0  0  0  0  0  0  0
  -17.5391   10.1012   40.5526 H   0  0  0  0  0  0  0  0  0  0  0  0
  -17.0411   15.9633   46.3054 H   0  0  0  0  0  0  0  0  0  0  0  0
  -17.1952   16.8304   44.7256 H   0  0  0  0  0  0  0  0  0  0  0  0
  -19.2427   17.5462   43.9758 H   0  0  0  0  0  0  0  0  0  0  0  0
  -20.7271   17.2250   44.9601 H   0  0  0  0  0  0  0  0  0  0  0  0
  -20.5855   15.7767   42.9512 H   0  0  0  0  0  0  0  0  0  0  0  0
  -20.5650   14.8441   44.4871 H   0  0  0  0  0  0  0  0  0  0  0  0
   -8.5777   14.9933   40.0250 H   0  0  0  0  0  0  0  0  0  0  0  0
   -8.8723   16.7888   40.2618 H   0  0  0  0  0  0  0  0  0  0  0  0
   -6.9835   15.3524   38.2303 H   0  0  0  0  0  0  0  0  0  0  0  0
   -6.6643   15.7832   35.8080 H   0  0  0  0  0  0  0  0  0  0  0  0
   -8.5002   16.7723   34.4651 H   0  0  0  0  0  0  0  0  0  0  0  0
  -15.0358   15.4584   41.9665 H   0  0  0  0  0  0  0  0  0  0  0  0
  -19.7857   13.1936   42.8909 H   0  0  0  0  0  0  0  0  0  0  0  0
  -18.1823   15.6061   42.7483 H   0  0  0  0  0  0  0  0  0  0  0  0
  -18.1912   14.0228   45.3591 H   0  0  0  0  0  0  0  0  0  0  0  0
  -16.7666   14.4593   44.3508 H   0  0  0  0  0  0  0  0  0  0  0  0
 23  1  2  0
 23 22  1  0
  1  2  1  0
 22 21  2  0
  2  3  2  0
 21  3  1  0
  3 20  1  0
 18 17  2  0
 20 19  1  0
 17 19  1  0
 17  7  1  0
 19  4  1  0
  8  7  1  0
  8  9  2  0
  7  6  2  0
 11 12  2  0
 11 10  1  0
  9 10  1  0
  9 24  1  0
 12 26  1  0
  6  5  1  0
  6 24  1  0
 10 25  2  0
  4  5  1  0
 26 13  2  0
 25 13  1  0
 13 27  1  0
 27 28  1  0
 28 16  1  0
 28 30  1  0
 16 15  1  0
 15 29  1  0
 30 14  1  0
 14 29  1  0
  1 31  1  0
  2 32  1  0
  4 33  1  0
  4 34  1  0
  5 35  1  0
  5 36  1  0
  8 37  1  0
 11 38  1  0
 12 39  1  0
 14 40  1  0
 14 41  1  0
 15 42  1  0
 15 43  1  0
 16 44  1  0
 16 45  1  0
 20 46  1  0
 20 47  1  0
 21 48  1  0
 22 49  1  0
 23 50  1  0
 24 51  1  0
 27 52  1  0
 28 53  1  0
 30 54  1  0
 30 55  1  0
A    1
C1
A    2
C2
A    3
C3
A    4
C7
A    5
C8
A    6
C9
A    7
C10
A    8
C11
A    9
C12
A   10
C13
A   11
C14
A   12
C15
A   13
C16
A   14
C19
A   15
C20
A   16
C21
A   17
C22
A   18
O1
A   19
N
A   20
C6
A   21
C4
A   22
C5
A   23
C
A   24
N1
A   25
N3
A   26
N2
A   27
N4
A   28
C17
A   29
O
A   30
C18
M  END
