5NIU_8YZ_A_201
     RDKit          3D

 78 82  0  0  0  0  0  0  0  0999 V2000
   -2.8970   17.7600  190.1330 N   0  0  0  0  0  0  0  0  0  0  0  0
   -1.7500   17.4970  190.1960 C   0  0  0  0  0  0  0  0  0  0  0  0
   -0.4980   17.2390  190.4430 C   0  0  0  0  0  0  0  0  0  0  0  0
    0.1990   17.9680  191.4060 C   0  0  0  0  0  0  0  0  0  0  0  0
    1.5260   17.6310  191.6950 C   0  0  0  0  0  0  0  0  0  0  0  0
    2.1690   16.6250  191.0260 C   0  0  0  0  0  0  0  0  0  0  0  0
    0.1470   16.1730  189.7940 C   0  0  0  0  0  0  0  0  0  0  0  0
    1.4990   15.9010  190.0750 C   0  0  0  0  0  0  0  0  0  0  0  0
    2.2860   14.8050  189.4410 C   0  0  0  0  0  0  0  0  0  0  0  0
    1.5940   13.6120  189.7260 O   0  0  0  0  0  0  0  0  0  0  0  0
    1.9280   12.4470  189.1130 C   0  0  0  0  0  0  0  0  0  0  0  0
    0.9820   11.3140  189.2940 C   0  0  0  0  0  0  0  0  0  0  0  0
   -0.1960   11.5270  190.1690 C   0  0  0  0  0  0  0  0  0  0  0  0
    0.3780   11.3410  191.5220 N   0  0  0  0  0  0  0  0  0  0  0  0
   -0.7300   11.2170  192.5200 C   0  0  0  0  0  0  0  0  0  0  0  0
   -1.7010   10.0440  192.2630 C   0  0  0  0  0  0  0  0  0  0  0  0
   -1.4210    9.0040  191.6370 O   0  0  0  0  0  0  0  0  0  0  0  0
   -2.9270   10.1570  192.7560 O   0  0  0  0  0  0  0  0  0  0  0  0
   -0.0190   11.1290  193.8700 C   0  0  0  0  0  0  0  0  0  0  0  0
    0.5390   12.3990  194.2370 O   0  0  0  0  0  0  0  0  0  0  0  0
    3.0800   12.2880  188.2930 C   0  0  0  0  0  0  0  0  0  0  0  0
    3.3020   11.0270  187.6780 C   0  0  0  0  0  0  0  0  0  0  0  0
    2.3290    9.8810  187.9230 C   0  0  0  0  0  0  0  0  0  0  0  0
    2.5270    8.5020  187.2970 C   0  0  0  0  0  0  0  0  0  0  0  0
    1.2150   10.0770  188.7380 C   0  0  0  0  0  0  0  0  0  0  0  0
    4.3750   10.8620  186.8890 O   0  0  0  0  0  0  0  0  0  0  0  0
    5.4840   11.6910  187.4090 C   0  0  0  0  0  0  0  0  0  0  0  0
    6.6230   11.1470  186.7220 C   0  0  0  0  0  0  0  0  0  0  0  0
    6.4360   10.3580  185.6480 C   0  0  0  0  0  0  0  0  0  0  0  0
    7.4760    9.8040  185.0060 C   0  0  0  0  0  0  0  0  0  0  0  0
    8.7570   10.0930  185.4260 C   0  0  0  0  0  0  0  0  0  0  0  0
    9.0240   10.8960  186.4850 C   0  0  0  0  0  0  0  0  0  0  0  0
    7.9430   11.4770  187.1690 C   0  0  0  0  0  0  0  0  0  0  0  0
    8.1930   12.3610  188.3130 C   0  0  0  0  0  0  0  0  0  0  0  0
   10.4730   11.1470  186.8550 C   0  0  0  0  0  0  0  0  0  0  0  0
   11.0510   10.7070  188.0570 C   0  0  0  0  0  0  0  0  0  0  0  0
   12.4450   10.9420  188.2890 C   0  0  0  0  0  0  0  0  0  0  0  0
   13.1790   11.6260  187.3270 C   0  0  0  0  0  0  0  0  0  0  0  0
   14.5320   11.8920  187.4240 O   0  0  0  0  0  0  0  0  0  0  0  0
   15.4140   12.1920  186.3080 C   0  0  0  0  0  0  0  0  0  0  0  0
   14.7340   13.1710  185.4250 C   0  0  0  0  0  0  0  0  0  0  0  0
   13.3800   12.6950  185.1390 O   0  0  0  0  0  0  0  0  0  0  0  0
   12.5710   12.0530  186.0690 C   0  0  0  0  0  0  0  0  0  0  0  0
   11.2010   11.8480  185.8710 C   0  0  0  0  0  0  0  0  0  0  0  0
   -0.2899   18.8003  191.9336 H   0  0  0  0  0  0  0  0  0  0  0  0
    2.0641   18.1868  192.4770 H   0  0  0  0  0  0  0  0  0  0  0  0
    3.2215   16.3981  191.2513 H   0  0  0  0  0  0  0  0  0  0  0  0
   -0.4022   15.5537  189.0695 H   0  0  0  0  0  0  0  0  0  0  0  0
    3.3003   14.7687  189.8652 H   0  0  0  0  0  0  0  0  0  0  0  0
    2.3900   14.9601  188.3570 H   0  0  0  0  0  0  0  0  0  0  0  0
   -0.6056   12.5404  190.0459 H   0  0  0  0  0  0  0  0  0  0  0  0
   -1.0355   10.8508  189.9499 H   0  0  0  0  0  0  0  0  0  0  0  0
    0.9514   10.4855  191.5373 H   0  0  0  0  0  0  0  0  0  0  0  0
   -1.4086   12.0807  192.4613 H   0  0  0  0  0  0  0  0  0  0  0  0
   -3.0672   10.1699  193.7359 H   0  0  0  0  0  0  0  0  0  0  0  0
   -0.7418   10.8173  194.6384 H   0  0  0  0  0  0  0  0  0  0  0  0
    0.7969   10.3955  193.7910 H   0  0  0  0  0  0  0  0  0  0  0  0
    0.5713   12.4725  195.2237 H   0  0  0  0  0  0  0  0  0  0  0  0
    3.7815   13.1212  188.1391 H   0  0  0  0  0  0  0  0  0  0  0  0
    2.6349    7.7502  188.0927 H   0  0  0  0  0  0  0  0  0  0  0  0
    1.6553    8.2537  186.6737 H   0  0  0  0  0  0  0  0  0  0  0  0
    3.4334    8.5090  186.6737 H   0  0  0  0  0  0  0  0  0  0  0  0
    0.5238    9.2446  188.9362 H   0  0  0  0  0  0  0  0  0  0  0  0
    5.5863   11.5809  188.4987 H   0  0  0  0  0  0  0  0  0  0  0  0
    5.3431   12.7691  187.2420 H   0  0  0  0  0  0  0  0  0  0  0  0
    5.4139   10.1640  185.2905 H   0  0  0  0  0  0  0  0  0  0  0  0
    7.3085    9.1275  184.1550 H   0  0  0  0  0  0  0  0  0  0  0  0
    9.6014    9.6516  184.8763 H   0  0  0  0  0  0  0  0  0  0  0  0
    8.0354   11.8038  189.2483 H   0  0  0  0  0  0  0  0  0  0  0  0
    9.2298   12.7266  188.2742 H   0  0  0  0  0  0  0  0  0  0  0  0
    7.5013   13.2154  188.2742 H   0  0  0  0  0  0  0  0  0  0  0  0
   10.4408   10.1883  188.8111 H   0  0  0  0  0  0  0  0  0  0  0  0
   12.9262   10.5873  189.2124 H   0  0  0  0  0  0  0  0  0  0  0  0
   15.6287   11.2711  185.7460 H   0  0  0  0  0  0  0  0  0  0  0  0
   16.3622   12.6101  186.6769 H   0  0  0  0  0  0  0  0  0  0  0  0
   15.2958   13.2718  184.4846 H   0  0  0  0  0  0  0  0  0  0  0  0
   14.6859   14.1503  185.9237 H   0  0  0  0  0  0  0  0  0  0  0  0
   10.7020   12.2258  184.9664 H   0  0  0  0  0  0  0  0  0  0  0  0
 30 31  1  0
 30 29  2  0
 42 41  1  0
 42 43  1  0
 41 40  1  0
 31 32  2  0
 29 28  1  0
 44 43  2  0
 44 35  1  0
 43 38  1  0
 40 39  1  0
 32 35  1  0
 32 33  1  0
 28 33  2  0
 28 27  1  0
 35 36  2  0
 26 27  1  0
 26 22  1  0
 33 34  1  0
 24 23  1  0
 38 39  1  0
 38 37  2  0
 22 23  2  0
 22 21  1  0
 23 25  1  0
 36 37  1  0
 21 11  2  0
 25 12  2  0
 11 12  1  0
 11 10  1  0
 12 13  1  0
  9 10  1  0
  9  8  1  0
  7  8  1  0
  7  3  2  0
  8  6  2  0
  1  2  3  0
 13 14  1  0
  2  3  1  0
  3  4  1  0
  6  5  1  0
  4  5  2  0
 14 15  1  0
 17 16  2  0
 16 15  1  0
 16 18  1  0
 15 19  1  0
 19 20  1  0
  4 45  1  0
  5 46  1  0
  6 47  1  0
  7 48  1  0
  9 49  1  0
  9 50  1  0
 13 51  1  0
 13 52  1  0
 14 53  1  0
 15 54  1  0
 18 55  1  0
 19 56  1  0
 19 57  1  0
 20 58  1  0
 21 59  1  0
 24 60  1  0
 24 61  1  0
 24 62  1  0
 25 63  1  0
 27 64  1  0
 27 65  1  0
 29 66  1  0
 30 67  1  0
 31 68  1  0
 34 69  1  0
 34 70  1  0
 34 71  1  0
 36 72  1  0
 37 73  1  0
 40 74  1  0
 40 75  1  0
 41 76  1  0
 41 77  1  0
 44 78  1  0
A    1
N1
A    2
C15
A    3
C14
A    4
C13
A    5
C12
A    6
C11
A    7
C16
A    8
C10
A    9
C9
A   10
O3
A   11
C8
A   12
C4
A   13
C3
A   14
N
A   15
C1
A   16
C2
A   17
O2
A   18
O1
A   19
C
A   20
O
A   21
C17
A   22
C18
A   23
C6
A   24
C7
A   25
C5
A   26
O4
A   27
C19
A   28
C20
A   29
C34
A   30
C33
A   31
C32
A   32
C23
A   33
C21
A   34
C22
A   35
C24
A   36
C31
A   37
C30
A   38
C27
A   39
O5
A   40
C28
A   41
C29
A   42
O6
A   43
C26
A   44
C25
M  END
