5NJZ_8ZH_A_1001
     RDKit          3D

 56 59  0  0  0  0  0  0  0  0999 V2000
  -93.0110  -16.0280   40.8760 C   0  0  0  0  0  0  0  0  0  0  0  0
  -91.7470  -15.3870   40.3250 C   0  0  0  0  0  0  0  0  0  0  0  0
  -90.5460  -16.1690   40.6730 N   0  0  0  0  0  0  0  0  0  0  0  0
  -90.7970  -17.6120   40.5010 C   0  0  0  0  0  0  0  0  0  0  0  0
  -91.8200  -18.1100   41.5190 C   0  0  0  0  0  0  0  0  0  0  0  0
  -92.5980  -16.9050   42.0370 C   0  0  0  0  0  0  0  0  0  0  0  0
  -93.7760  -17.3010   42.8220 N   0  0  0  0  0  0  0  0  0  0  0  0
  -94.7910  -18.0690   42.4010 C   0  0  0  0  0  0  0  0  0  0  0  0
  -94.9100  -18.5720   41.2830 O   0  0  0  0  0  0  0  0  0  0  0  0
  -95.7690  -18.2030   43.3750 C   0  0  0  0  0  0  0  0  0  0  0  0
  -97.1130  -18.2270   43.0250 C   0  0  0  0  0  0  0  0  0  0  0  0
  -95.3750  -18.2680   44.7050 C   0  0  0  0  0  0  0  0  0  0  0  0
  -96.3380  -18.3740   45.6930 C   0  0  0  0  0  0  0  0  0  0  0  0
  -97.6770  -18.4040   45.3340 C   0  0  0  0  0  0  0  0  0  0  0  0
  -98.0920  -18.3440   44.0050 C   0  0  0  0  0  0  0  0  0  0  0  0
  -99.3790  -18.3550   43.5950 N   0  0  0  0  0  0  0  0  0  0  0  0
 -100.4160  -18.8700   44.2820 C   0  0  0  0  0  0  0  0  0  0  0  0
 -100.4360  -19.6510   45.7710 S   0  0  0  0  0  0  0  0  0  0  0  0
 -101.6780  -18.8420   43.8110 N   0  0  0  0  0  0  0  0  0  0  0  0
 -102.6020  -19.4100   44.6300 C   0  0  0  0  0  0  0  0  0  0  0  0
 -102.0960  -19.9220   45.7660 C   0  0  0  0  0  0  0  0  0  0  0  0
 -102.7580  -20.5470   46.7650 C   0  0  0  0  0  0  0  0  0  0  0  0
 -102.1500  -20.8380   47.7950 O   0  0  0  0  0  0  0  0  0  0  0  0
 -104.0730  -20.8390   46.5820 N   0  0  0  0  0  0  0  0  0  0  0  0
 -104.7670  -21.4470   47.5870 C   0  0  0  0  0  0  0  0  0  0  0  0
 -104.9890  -22.8310   47.5650 C   0  0  0  0  0  0  0  0  0  0  0  0
 -104.3930  -23.8490   46.2990 Cl  0  0  0  0  0  0  0  0  0  0  0  0
 -105.7080  -23.4290   48.5990 C   0  0  0  0  0  0  0  0  0  0  0  0
 -106.2110  -22.6670   49.6480 C   0  0  0  0  0  0  0  0  0  0  0  0
 -105.9960  -21.2890   49.6580 C   0  0  0  0  0  0  0  0  0  0  0  0
 -105.2780  -20.6720   48.6340 C   0  0  0  0  0  0  0  0  0  0  0  0
 -105.0860  -19.2870   48.6870 C   0  0  0  0  0  0  0  0  0  0  0  0
  -93.7086  -15.2504   41.2205 H   0  0  0  0  0  0  0  0  0  0  0  0
  -93.5186  -16.6203   40.1004 H   0  0  0  0  0  0  0  0  0  0  0  0
  -91.6479  -14.3749   40.7444 H   0  0  0  0  0  0  0  0  0  0  0  0
  -91.8289  -15.3515   39.2286 H   0  0  0  0  0  0  0  0  0  0  0  0
  -89.7683  -15.8855   40.0600 H   0  0  0  0  0  0  0  0  0  0  0  0
  -91.1809  -17.7927   39.4861 H   0  0  0  0  0  0  0  0  0  0  0  0
  -89.8529  -18.1548   40.6558 H   0  0  0  0  0  0  0  0  0  0  0  0
  -92.5090  -18.8201   41.0384 H   0  0  0  0  0  0  0  0  0  0  0  0
  -91.3127  -18.6220   42.3499 H   0  0  0  0  0  0  0  0  0  0  0  0
  -91.9352  -16.3416   42.7103 H   0  0  0  0  0  0  0  0  0  0  0  0
  -93.8266  -16.9544   43.7906 H   0  0  0  0  0  0  0  0  0  0  0  0
  -97.4042  -18.1530   41.9668 H   0  0  0  0  0  0  0  0  0  0  0  0
  -94.3080  -18.2355   44.9705 H   0  0  0  0  0  0  0  0  0  0  0  0
  -96.0446  -18.4338   46.7515 H   0  0  0  0  0  0  0  0  0  0  0  0
  -98.4376  -18.4777   46.1252 H   0  0  0  0  0  0  0  0  0  0  0  0
  -99.5847  -17.9332   42.6781 H   0  0  0  0  0  0  0  0  0  0  0  0
 -103.6736  -19.4478   44.3844 H   0  0  0  0  0  0  0  0  0  0  0  0
 -104.5401  -20.6039   45.6946 H   0  0  0  0  0  0  0  0  0  0  0  0
 -105.8793  -24.5155   48.5849 H   0  0  0  0  0  0  0  0  0  0  0  0
 -106.7734  -23.1468   50.4625 H   0  0  0  0  0  0  0  0  0  0  0  0
 -106.3973  -20.6820   50.4829 H   0  0  0  0  0  0  0  0  0  0  0  0
 -105.0411  -18.9630   49.7372 H   0  0  0  0  0  0  0  0  0  0  0  0
 -104.1434  -19.0279   48.1827 H   0  0  0  0  0  0  0  0  0  0  0  0
 -105.9226  -18.7813   48.1827 H   0  0  0  0  0  0  0  0  0  0  0  0
  2  3  1  0
  2  1  1  0
  4  3  1  0
  4  5  1  0
  1  6  1  0
  9  8  2  0
  5  6  1  0
  6  7  1  0
  8  7  1  0
  8 10  1  0
 11 10  2  0
 11 15  1  0
 10 12  1  0
 16 15  1  0
 16 17  1  0
 19 17  2  0
 19 20  1  0
 15 14  2  0
 17 18  1  0
 20 21  2  0
 12 13  2  0
 14 13  1  0
 21 18  1  0
 21 22  1  0
 27 26  1  0
 24 22  1  0
 24 25  1  0
 22 23  2  0
 26 25  2  0
 26 28  1  0
 25 31  1  0
 28 29  2  0
 31 32  1  0
 31 30  2  0
 29 30  1  0
  1 33  1  0
  1 34  1  0
  2 35  1  0
  2 36  1  0
  3 37  1  0
  4 38  1  0
  4 39  1  0
  5 40  1  0
  5 41  1  0
  6 42  1  0
  7 43  1  0
 11 44  1  0
 12 45  1  0
 13 46  1  0
 14 47  1  0
 16 48  1  0
 20 49  1  0
 24 50  1  0
 28 51  1  0
 29 52  1  0
 30 53  1  0
 32 54  1  0
 32 55  1  0
 32 56  1  0
A    1
CAV
A    2
CAW
A    3
NAX
A    4
CAY
A    5
CAZ
A    6
CAU
A    7
NAT
A    8
CAR
A    9
OAS
A   10
CAN
A   11
CAM
A   12
CAO
A   13
CAP
A   14
CAQ
A   15
CAL
A   16
NAK
A   17
CAJ
A   18
SBA
A   19
NAI
A   20
CAH
A   21
CAG
A   22
CAE
A   23
OAF
A   24
NAD
A   25
CAC
A   26
CBB
A   27
CL
A   28
CBC
A   29
CBD
A   30
CBE
A   31
CAB
A   32
CAA
M  END
