5NK0_91E_A_1001
     RDKit          3D

 58 60  0  0  0  0  0  0  0  0999 V2000
  128.9470   14.4420   50.2410 C   0  0  0  0  0  0  0  0  0  0  0  0
  129.2080   15.8070   50.3340 C   0  0  0  0  0  0  0  0  0  0  0  0
  129.8570   16.2840   51.4730 C   0  0  0  0  0  0  0  0  0  0  0  0
  130.1480   17.6380   51.6100 C   0  0  0  0  0  0  0  0  0  0  0  0
  129.7790   18.5160   50.5960 C   0  0  0  0  0  0  0  0  0  0  0  0
  129.1220   18.0570   49.4550 C   0  0  0  0  0  0  0  0  0  0  0  0
  128.6990   19.2240   48.2590 Cl  0  0  0  0  0  0  0  0  0  0  0  0
  128.8250   16.6990   49.3280 C   0  0  0  0  0  0  0  0  0  0  0  0
  128.2020   16.2110   48.2210 N   0  0  0  0  0  0  0  0  0  0  0  0
  126.8620   16.0180   48.2330 C   0  0  0  0  0  0  0  0  0  0  0  0
  126.1740   16.2710   49.2180 O   0  0  0  0  0  0  0  0  0  0  0  0
  126.2700   15.4650   47.1470 C   0  0  0  0  0  0  0  0  0  0  0  0
  124.6190   15.2110   47.0430 S   0  0  0  0  0  0  0  0  0  0  0  0
  126.8390   14.9910   46.0220 C   0  0  0  0  0  0  0  0  0  0  0  0
  125.9650   14.4710   45.1170 N   0  0  0  0  0  0  0  0  0  0  0  0
  124.6720   14.4960   45.5040 C   0  0  0  0  0  0  0  0  0  0  0  0
  123.6670   14.0200   44.7400 N   0  0  0  0  0  0  0  0  0  0  0  0
  122.3620   13.9680   45.0950 C   0  0  0  0  0  0  0  0  0  0  0  0
  121.4100   14.0380   44.0750 C   0  0  0  0  0  0  0  0  0  0  0  0
  121.9150   13.8100   46.4060 C   0  0  0  0  0  0  0  0  0  0  0  0
  120.5540   13.7540   46.6960 C   0  0  0  0  0  0  0  0  0  0  0  0
  119.6260   13.8340   45.6690 C   0  0  0  0  0  0  0  0  0  0  0  0
  120.0480   13.9810   44.3580 C   0  0  0  0  0  0  0  0  0  0  0  0
  119.1020   14.0480   43.3360 C   0  0  0  0  0  0  0  0  0  0  0  0
  119.3230   14.6620   42.2920 O   0  0  0  0  0  0  0  0  0  0  0  0
  117.9760   13.3590   43.5730 N   0  0  0  0  0  0  0  0  0  0  0  0
  116.8780   13.2930   42.5970 C   0  0  0  0  0  0  0  0  0  0  0  0
  115.5320   13.4890   43.3000 C   0  0  0  0  0  0  0  0  0  0  0  0
  115.7460   14.2340   44.6210 C   0  0  0  0  0  0  0  0  0  0  0  0
  114.8830   12.1280   43.5830 C   0  0  0  0  0  0  0  0  0  0  0  0
  114.6240   14.3160   42.3860 C   0  0  0  0  0  0  0  0  0  0  0  0
  113.3870   14.7130   43.0740 N   0  0  0  0  0  0  0  0  0  0  0  0
  128.8653   14.0147   51.2513 H   0  0  0  0  0  0  0  0  0  0  0  0
  128.0026   14.2853   49.6991 H   0  0  0  0  0  0  0  0  0  0  0  0
  129.7670   13.9480   49.6991 H   0  0  0  0  0  0  0  0  0  0  0  0
  130.1417   15.5826   52.2711 H   0  0  0  0  0  0  0  0  0  0  0  0
  130.6631   18.0091   52.5083 H   0  0  0  0  0  0  0  0  0  0  0  0
  130.0087   19.5871   50.6957 H   0  0  0  0  0  0  0  0  0  0  0  0
  128.7483   15.9891   47.3765 H   0  0  0  0  0  0  0  0  0  0  0  0
  127.9247   15.0216   45.8481 H   0  0  0  0  0  0  0  0  0  0  0  0
  123.9144   13.6653   43.8052 H   0  0  0  0  0  0  0  0  0  0  0  0
  121.7419   14.1398   43.0312 H   0  0  0  0  0  0  0  0  0  0  0  0
  122.6474   13.7284   47.2227 H   0  0  0  0  0  0  0  0  0  0  0  0
  120.2161   13.6466   47.7373 H   0  0  0  0  0  0  0  0  0  0  0  0
  118.5510   13.7805   45.8961 H   0  0  0  0  0  0  0  0  0  0  0  0
  117.8770   12.8595   44.4683 H   0  0  0  0  0  0  0  0  0  0  0  0
  116.8899   12.3103   42.1028 H   0  0  0  0  0  0  0  0  0  0  0  0
  117.0126   14.0905   41.8514 H   0  0  0  0  0  0  0  0  0  0  0  0
  115.5503   13.5526   45.4621 H   0  0  0  0  0  0  0  0  0  0  0  0
  116.7839   14.5942   44.6748 H   0  0  0  0  0  0  0  0  0  0  0  0
  115.0575   15.0902   44.6748 H   0  0  0  0  0  0  0  0  0  0  0  0
  114.8102   11.9754   44.6699 H   0  0  0  0  0  0  0  0  0  0  0  0
  113.8760   12.1030   43.1410 H   0  0  0  0  0  0  0  0  0  0  0  0
  115.4974   11.3298   43.1410 H   0  0  0  0  0  0  0  0  0  0  0  0
  114.3645   13.7157   41.5015 H   0  0  0  0  0  0  0  0  0  0  0  0
  115.1654   15.2280   42.0943 H   0  0  0  0  0  0  0  0  0  0  0  0
  113.5308   14.6668   44.0929 H   0  0  0  0  0  0  0  0  0  0  0  0
  113.1387   15.6759   42.8056 H   0  0  0  0  0  0  0  0  0  0  0  0
 25 24  2  0
 31 32  1  0
 31 28  1  0
 27 28  1  0
 27 26  1  0
 28 30  1  0
 28 29  1  0
 24 26  1  0
 24 23  1  0
 19 23  2  0
 19 18  1  0
 23 22  1  0
 17 18  1  0
 17 16  1  0
 18 20  2  0
 15 16  2  0
 15 14  1  0
 16 13  1  0
 22 21  2  0
 14 12  2  0
 20 21  1  0
 13 12  1  0
 12 10  1  0
  9 10  1  0
  9  8  1  0
 10 11  2  0
  7  6  1  0
  8  6  1  0
  8  2  2  0
  6  5  2  0
  1  2  1  0
  2  3  1  0
  5  4  1  0
  3  4  2  0
  1 33  1  0
  1 34  1  0
  1 35  1  0
  3 36  1  0
  4 37  1  0
  5 38  1  0
  9 39  1  0
 14 40  1  0
 17 41  1  0
 19 42  1  0
 20 43  1  0
 21 44  1  0
 22 45  1  0
 26 46  1  0
 27 47  1  0
 27 48  1  0
 29 49  1  0
 29 50  1  0
 29 51  1  0
 30 52  1  0
 30 53  1  0
 30 54  1  0
 31 55  1  0
 31 56  1  0
 32 57  1  0
 32 58  1  0
A    1
CBC
A    2
CBB
A    3
CBD
A    4
CBE
A    5
CBF
A    6
CAB
A    7
CL1
A    8
CAC
A    9
NAD
A   10
CAE
A   11
OBA
A   12
CAF
A   13
SAZ
A   14
CAG
A   15
NAH
A   16
CAI
A   17
NAJ
A   18
CAK
A   19
CAY
A   20
CAL
A   21
CAM
A   22
CAN
A   23
CAO
A   24
CAP
A   25
OAX
A   26
NAQ
A   27
CAR
A   28
CAS
A   29
CAV
A   30
CAW
A   31
CAT
A   32
NAU
M  END
