5NK5_90K_A_1001
     RDKit          3D

 53 56  0  0  0  0  0  0  0  0999 V2000
  129.1060   14.6050   50.5380 C   0  0  0  0  0  0  0  0  0  0  0  0
  129.3210   16.0590   50.5300 C   0  0  0  0  0  0  0  0  0  0  0  0
  129.9290   16.6720   51.6250 C   0  0  0  0  0  0  0  0  0  0  0  0
  130.2200   18.0160   51.6920 C   0  0  0  0  0  0  0  0  0  0  0  0
  129.8490   18.8010   50.6450 C   0  0  0  0  0  0  0  0  0  0  0  0
  129.2280   18.2480   49.5540 C   0  0  0  0  0  0  0  0  0  0  0  0
  128.8240   19.2800   48.3150 Cl  0  0  0  0  0  0  0  0  0  0  0  0
  128.9550   16.9040   49.4860 C   0  0  0  0  0  0  0  0  0  0  0  0
  128.3570   16.3890   48.3860 N   0  0  0  0  0  0  0  0  0  0  0  0
  127.0750   16.0340   48.3860 C   0  0  0  0  0  0  0  0  0  0  0  0
  126.3860   16.1960   49.3430 O   0  0  0  0  0  0  0  0  0  0  0  0
  126.4920   15.4810   47.3170 C   0  0  0  0  0  0  0  0  0  0  0  0
  124.7850   15.2250   47.2270 S   0  0  0  0  0  0  0  0  0  0  0  0
  127.0110   14.9930   46.1880 C   0  0  0  0  0  0  0  0  0  0  0  0
  126.1450   14.4850   45.3100 N   0  0  0  0  0  0  0  0  0  0  0  0
  124.8540   14.4840   45.6970 C   0  0  0  0  0  0  0  0  0  0  0  0
  123.8590   14.0180   44.9370 N   0  0  0  0  0  0  0  0  0  0  0  0
  122.5250   14.0170   45.2330 C   0  0  0  0  0  0  0  0  0  0  0  0
  121.6160   13.6750   44.2540 C   0  0  0  0  0  0  0  0  0  0  0  0
  122.0150   14.2830   46.4770 C   0  0  0  0  0  0  0  0  0  0  0  0
  120.6450   14.2640   46.6950 C   0  0  0  0  0  0  0  0  0  0  0  0
  119.7980   13.9060   45.6940 C   0  0  0  0  0  0  0  0  0  0  0  0
  120.2280   13.6220   44.4300 C   0  0  0  0  0  0  0  0  0  0  0  0
  119.3030   13.0920   43.4800 C   0  0  0  0  0  0  0  0  0  0  0  0
  119.0210   11.8850   43.6370 O   0  0  0  0  0  0  0  0  0  0  0  0
  118.8390   13.8060   42.5120 N   0  0  0  0  0  0  0  0  0  0  0  0
  118.0160   13.2300   41.5950 C   0  0  0  0  0  0  0  0  0  0  0  0
  116.9440   12.5220   42.0620 C   0  0  0  0  0  0  0  0  0  0  0  0
  116.0980   11.8670   41.2100 C   0  0  0  0  0  0  0  0  0  0  0  0
  115.0190   11.2090   41.6640 N   0  0  0  0  0  0  0  0  0  0  0  0
  116.3760   11.9410   39.8520 C   0  0  0  0  0  0  0  0  0  0  0  0
  117.4640   12.6280   39.3200 C   0  0  0  0  0  0  0  0  0  0  0  0
  118.2930   13.2660   40.2320 C   0  0  0  0  0  0  0  0  0  0  0  0
  129.0532   14.2479   51.5771 H   0  0  0  0  0  0  0  0  0  0  0  0
  128.1635   14.3709   50.0215 H   0  0  0  0  0  0  0  0  0  0  0  0
  129.9404   14.1081   50.0215 H   0  0  0  0  0  0  0  0  0  0  0  0
  130.1923   16.0431   52.4883 H   0  0  0  0  0  0  0  0  0  0  0  0
  130.7364   18.4417   52.5650 H   0  0  0  0  0  0  0  0  0  0  0  0
  130.0475   19.8826   50.6732 H   0  0  0  0  0  0  0  0  0  0  0  0
  128.9099   16.2687   47.5254 H   0  0  0  0  0  0  0  0  0  0  0  0
  128.0934   15.0090   45.9926 H   0  0  0  0  0  0  0  0  0  0  0  0
  124.1269   13.6151   44.0277 H   0  0  0  0  0  0  0  0  0  0  0  0
  122.0117   13.4247   43.2586 H   0  0  0  0  0  0  0  0  0  0  0  0
  122.6970   14.5133   47.3088 H   0  0  0  0  0  0  0  0  0  0  0  0
  120.2429   14.5395   47.6811 H   0  0  0  0  0  0  0  0  0  0  0  0
  118.7216   13.8425   45.9115 H   0  0  0  0  0  0  0  0  0  0  0  0
  119.0889   14.8022   42.4339 H   0  0  0  0  0  0  0  0  0  0  0  0
  116.7579   12.4782   43.1453 H   0  0  0  0  0  0  0  0  0  0  0  0
  114.8627   11.1137   42.6776 H   0  0  0  0  0  0  0  0  0  0  0  0
  114.3477   10.7996   40.9986 H   0  0  0  0  0  0  0  0  0  0  0  0
  115.6972   11.4269   39.1556 H   0  0  0  0  0  0  0  0  0  0  0  0
  117.6557   12.6631   38.2374 H   0  0  0  0  0  0  0  0  0  0  0  0
  119.1806   13.8072   39.8726 H   0  0  0  0  0  0  0  0  0  0  0  0
 32 31  2  0
 32 33  1  0
 31 29  1  0
 33 27  2  0
 29 30  1  0
 29 28  2  0
 27 28  1  0
 27 26  1  0
 26 24  1  0
 25 24  2  0
 24 23  1  0
 19 23  2  0
 19 18  1  0
 23 22  1  0
 17 18  1  0
 17 16  1  0
 18 20  2  0
 15 16  2  0
 15 14  1  0
 22 21  2  0
 16 13  1  0
 14 12  2  0
 20 21  1  0
 13 12  1  0
 12 10  1  0
  7  6  1  0
  9 10  1  0
  9  8  1  0
 10 11  2  0
  8  6  1  0
  8  2  2  0
  6  5  2  0
  1  2  1  0
  2  3  1  0
  5  4  1  0
  3  4  2  0
  1 34  1  0
  1 35  1  0
  1 36  1  0
  3 37  1  0
  4 38  1  0
  5 39  1  0
  9 40  1  0
 14 41  1  0
 17 42  1  0
 19 43  1  0
 20 44  1  0
 21 45  1  0
 22 46  1  0
 26 47  1  0
 28 48  1  0
 30 49  1  0
 30 50  1  0
 31 51  1  0
 32 52  1  0
 33 53  1  0
A    1
CBD
A    2
CBC
A    3
CBE
A    4
CBF
A    5
CBG
A    6
CAB
A    7
CL1
A    8
CAC
A    9
NAD
A   10
CAE
A   11
OBB
A   12
CAF
A   13
SBA
A   14
CAG
A   15
NAH
A   16
CAI
A   17
NAJ
A   18
CAK
A   19
CAZ
A   20
CAL
A   21
CAM
A   22
CAN
A   23
CAO
A   24
CAP
A   25
OAY
A   26
NAQ
A   27
CAR
A   28
CAX
A   29
CAV
A   30
NAW
A   31
CAU
A   32
CAT
A   33
CAS
M  END
