5NK8_90Z_A_1001
     RDKit          3D

 69 72  0  0  0  0  0  0  0  0999 V2000
  115.7400   12.5190   43.2040 C   0  0  0  0  0  0  0  0  0  0  0  0
  114.7080   11.9680   42.2840 C   0  0  0  0  0  0  0  0  0  0  0  0
  114.4000   13.0390   41.2820 C   0  0  0  0  0  0  0  0  0  0  0  0
  113.4310   11.7480   43.1010 C   0  0  0  0  0  0  0  0  0  0  0  0
  115.1220   10.8560   41.4310 N   0  0  0  0  0  0  0  0  0  0  0  0
  114.2950    9.9060   41.3570 O   0  0  0  0  0  0  0  0  0  0  0  0
  116.5600   10.4900   41.3690 C   0  0  0  0  0  0  0  0  0  0  0  0
  117.0360   11.1010   40.0860 C   0  0  0  0  0  0  0  0  0  0  0  0
  116.8200    8.9870   41.3060 C   0  0  0  0  0  0  0  0  0  0  0  0
  117.3950   11.0510   42.4460 C   0  0  0  0  0  0  0  0  0  0  0  0
  117.1270   12.4490   42.6780 C   0  0  0  0  0  0  0  0  0  0  0  0
  118.1110   12.9880   43.6260 N   0  0  0  0  0  0  0  0  0  0  0  0
  118.9720   13.9800   43.3420 C   0  0  0  0  0  0  0  0  0  0  0  0
  119.0310   14.4460   42.2360 O   0  0  0  0  0  0  0  0  0  0  0  0
  119.9040   14.3160   44.3520 C   0  0  0  0  0  0  0  0  0  0  0  0
  121.2620   14.4630   44.1110 C   0  0  0  0  0  0  0  0  0  0  0  0
  119.5090   14.4750   45.6400 C   0  0  0  0  0  0  0  0  0  0  0  0
  120.4100   14.7320   46.6460 C   0  0  0  0  0  0  0  0  0  0  0  0
  121.7490   14.8540   46.3650 C   0  0  0  0  0  0  0  0  0  0  0  0
  122.2020   14.7330   45.0900 C   0  0  0  0  0  0  0  0  0  0  0  0
  123.4930   14.8270   44.7760 N   0  0  0  0  0  0  0  0  0  0  0  0
  124.4900   15.2960   45.5170 C   0  0  0  0  0  0  0  0  0  0  0  0
  124.4720   15.9330   47.0910 S   0  0  0  0  0  0  0  0  0  0  0  0
  125.7490   15.3640   45.1100 N   0  0  0  0  0  0  0  0  0  0  0  0
  126.6000   15.8710   46.0020 C   0  0  0  0  0  0  0  0  0  0  0  0
  126.0600   16.2710   47.1560 C   0  0  0  0  0  0  0  0  0  0  0  0
  126.6830   16.7970   48.2360 C   0  0  0  0  0  0  0  0  0  0  0  0
  126.0110   16.9280   49.2110 O   0  0  0  0  0  0  0  0  0  0  0  0
  128.0020   17.0910   48.2090 N   0  0  0  0  0  0  0  0  0  0  0  0
  128.6070   17.5920   49.2820 C   0  0  0  0  0  0  0  0  0  0  0  0
  128.9200   16.7380   50.3140 C   0  0  0  0  0  0  0  0  0  0  0  0
  128.6190   15.1570   50.2200 Cl  0  0  0  0  0  0  0  0  0  0  0  0
  129.5510   17.1960   51.4610 C   0  0  0  0  0  0  0  0  0  0  0  0
  129.8560   18.5340   51.5840 C   0  0  0  0  0  0  0  0  0  0  0  0
  129.5310   19.3740   50.5320 C   0  0  0  0  0  0  0  0  0  0  0  0
  128.9010   18.9570   49.3790 C   0  0  0  0  0  0  0  0  0  0  0  0
  128.5970   19.8990   48.3790 C   0  0  0  0  0  0  0  0  0  0  0  0
  115.4987   13.5741   43.4002 H   0  0  0  0  0  0  0  0  0  0  0  0
  115.7157   11.8991   44.1124 H   0  0  0  0  0  0  0  0  0  0  0  0
  114.1330   13.9674   41.8080 H   0  0  0  0  0  0  0  0  0  0  0  0
  115.2836   13.2161   40.6512 H   0  0  0  0  0  0  0  0  0  0  0  0
  113.5573   12.7196   40.6512 H   0  0  0  0  0  0  0  0  0  0  0  0
  113.6704   11.7892   44.1738 H   0  0  0  0  0  0  0  0  0  0  0  0
  112.7003   12.5335   42.8579 H   0  0  0  0  0  0  0  0  0  0  0  0
  113.0053   10.7633   42.8579 H   0  0  0  0  0  0  0  0  0  0  0  0
  114.0428    9.6162   42.2694 H   0  0  0  0  0  0  0  0  0  0  0  0
  117.6981   11.9509   40.3081 H   0  0  0  0  0  0  0  0  0  0  0  0
  117.5882   10.3483   39.5041 H   0  0  0  0  0  0  0  0  0  0  0  0
  116.1711   11.4523   39.5041 H   0  0  0  0  0  0  0  0  0  0  0  0
  116.8897    8.5838   42.3271 H   0  0  0  0  0  0  0  0  0  0  0  0
  115.9938    8.4940   40.7728 H   0  0  0  0  0  0  0  0  0  0  0  0
  117.7638    8.8002   40.7728 H   0  0  0  0  0  0  0  0  0  0  0  0
  117.1958   10.4945   43.3737 H   0  0  0  0  0  0  0  0  0  0  0  0
  118.4469   10.9578   42.1379 H   0  0  0  0  0  0  0  0  0  0  0  0
  117.2123   13.0544   41.7635 H   0  0  0  0  0  0  0  0  0  0  0  0
  118.1432   12.5787   44.5706 H   0  0  0  0  0  0  0  0  0  0  0  0
  121.6147   14.3581   43.0744 H   0  0  0  0  0  0  0  0  0  0  0  0
  118.4397   14.3962   45.8859 H   0  0  0  0  0  0  0  0  0  0  0  0
  120.0566   14.8406   47.6820 H   0  0  0  0  0  0  0  0  0  0  0  0
  122.4610   15.0515   47.1799 H   0  0  0  0  0  0  0  0  0  0  0  0
  123.7514   14.4926   43.8367 H   0  0  0  0  0  0  0  0  0  0  0  0
  127.6781   15.9545   45.8004 H   0  0  0  0  0  0  0  0  0  0  0  0
  128.5439   16.9254   47.3489 H   0  0  0  0  0  0  0  0  0  0  0  0
  129.8067   16.4944   52.2687 H   0  0  0  0  0  0  0  0  0  0  0  0
  130.3429   18.9232   52.4903 H   0  0  0  0  0  0  0  0  0  0  0  0
  129.7915   20.4389   50.6220 H   0  0  0  0  0  0  0  0  0  0  0  0
  128.2914   20.8459   48.8480 H   0  0  0  0  0  0  0  0  0  0  0  0
  129.4857   20.0696   47.7536 H   0  0  0  0  0  0  0  0  0  0  0  0
  127.7762   19.5179   47.7536 H   0  0  0  0  0  0  0  0  0  0  0  0
  8  7  1  0
  3  2  1  0
  9  7  1  0
  6  5  1  0
  7  5  1  0
  7 10  1  0
  5  2  1  0
 14 13  2  0
  2  4  1  0
  2  1  1  0
 10 11  1  0
 11  1  1  0
 11 12  1  0
 13 12  1  0
 13 15  1  0
 16 15  2  0
 16 20  1  0
 15 17  1  0
 21 20  1  0
 21 22  1  0
 20 19  2  0
 24 22  2  0
 24 25  1  0
 22 23  1  0
 17 18  2  0
 25 26  2  0
 19 18  1  0
 23 26  1  0
 26 27  1  0
 29 27  1  0
 29 30  1  0
 27 28  2  0
 37 36  1  0
 30 36  1  0
 30 31  2  0
 36 35  2  0
 32 31  1  0
 31 33  1  0
 35 34  1  0
 33 34  2  0
  1 38  1  0
  1 39  1  0
  3 40  1  0
  3 41  1  0
  3 42  1  0
  4 43  1  0
  4 44  1  0
  4 45  1  0
  6 46  1  0
  8 47  1  0
  8 48  1  0
  8 49  1  0
  9 50  1  0
  9 51  1  0
  9 52  1  0
 10 53  1  0
 10 54  1  0
 11 55  1  0
 12 56  1  0
 16 57  1  0
 17 58  1  0
 18 59  1  0
 19 60  1  0
 21 61  1  0
 25 62  1  0
 29 63  1  0
 33 64  1  0
 34 65  1  0
 35 66  1  0
 37 67  1  0
 37 68  1  0
 37 69  1  0
A    1
CAS
A    2
CAT
A    3
CAU
A    4
CAV
A    5
NAW
A    6
OAX
A    7
CAY
A    8
CAZ
A    9
CBA
A   10
CBB
A   11
CAR
A   12
NAQ
A   13
CAP
A   14
OBC
A   15
CAO
A   16
CBD
A   17
CAN
A   18
CAM
A   19
CAL
A   20
CAK
A   21
NAJ
A   22
CAI
A   23
SBE
A   24
NAH
A   25
CAG
A   26
CAF
A   27
CAE
A   28
OBF
A   29
NAD
A   30
CAC
A   31
CAB
A   32
CLA
A   33
CBK
A   34
CBJ
A   35
CBI
A   36
CBG
A   37
CBH
M  END
