5NK9_912_A_1001
     RDKit          3D

 63 66  0  0  0  0  0  0  0  0999 V2000
  -80.1020  -10.7150    9.3500 C   0  0  0  0  0  0  0  0  0  0  0  0
  -78.8350  -11.4100    9.5010 C   0  0  0  0  0  0  0  0  0  0  0  0
  -78.7030  -11.7760   10.9330 C   0  0  0  0  0  0  0  0  0  0  0  0
  -78.5360  -10.5290   11.7520 C   0  0  0  0  0  0  0  0  0  0  0  0
  -77.5450  -12.5570   10.9180 O   0  0  0  0  0  0  0  0  0  0  0  0
  -79.9390  -12.4740   11.5290 C   0  0  0  0  0  0  0  0  0  0  0  0
  -81.3070  -11.9400   10.9700 C   0  0  0  0  0  0  0  0  0  0  0  0
  -81.0220  -11.8380    9.5650 C   0  0  0  0  0  0  0  0  0  0  0  0
  -82.0750  -11.6830    8.6020 N   0  0  0  0  0  0  0  0  0  0  0  0
  -83.1590  -10.9880    8.4690 C   0  0  0  0  0  0  0  0  0  0  0  0
  -83.6850  -10.4210    9.3740 O   0  0  0  0  0  0  0  0  0  0  0  0
  -83.6660  -11.0480    7.1690 C   0  0  0  0  0  0  0  0  0  0  0  0
  -85.0150  -11.1050    6.8770 C   0  0  0  0  0  0  0  0  0  0  0  0
  -82.7880  -11.0770    6.1150 C   0  0  0  0  0  0  0  0  0  0  0  0
  -83.1850  -11.1410    4.8350 C   0  0  0  0  0  0  0  0  0  0  0  0
  -84.5220  -11.1970    4.6090 C   0  0  0  0  0  0  0  0  0  0  0  0
  -85.4570  -11.1770    5.5630 C   0  0  0  0  0  0  0  0  0  0  0  0
  -86.6860  -11.2060    5.1320 N   0  0  0  0  0  0  0  0  0  0  0  0
  -87.6840  -11.7000    5.7910 C   0  0  0  0  0  0  0  0  0  0  0  0
  -87.7000  -12.4630    7.2840 S   0  0  0  0  0  0  0  0  0  0  0  0
  -88.8980  -11.6560    5.3500 N   0  0  0  0  0  0  0  0  0  0  0  0
  -89.8030  -12.1860    6.1650 C   0  0  0  0  0  0  0  0  0  0  0  0
  -89.3680  -12.7360    7.2960 C   0  0  0  0  0  0  0  0  0  0  0  0
  -90.0120  -13.3680    8.3480 C   0  0  0  0  0  0  0  0  0  0  0  0
  -89.4020  -13.5480    9.3390 O   0  0  0  0  0  0  0  0  0  0  0  0
  -91.2830  -13.7590    8.2330 N   0  0  0  0  0  0  0  0  0  0  0  0
  -91.9590  -14.3850    9.2390 C   0  0  0  0  0  0  0  0  0  0  0  0
  -92.4870  -13.6630   10.3030 C   0  0  0  0  0  0  0  0  0  0  0  0
  -92.2670  -11.9860   10.4390 Cl  0  0  0  0  0  0  0  0  0  0  0  0
  -93.1880  -14.2950   11.3100 C   0  0  0  0  0  0  0  0  0  0  0  0
  -93.4070  -15.6570   11.2460 C   0  0  0  0  0  0  0  0  0  0  0  0
  -92.9110  -16.3650   10.1720 C   0  0  0  0  0  0  0  0  0  0  0  0
  -92.1940  -15.7560    9.1670 C   0  0  0  0  0  0  0  0  0  0  0  0
  -91.6900  -16.5530    8.1290 C   0  0  0  0  0  0  0  0  0  0  0  0
  -80.2311   -9.9280   10.1077 H   0  0  0  0  0  0  0  0  0  0  0  0
  -80.2315  -10.1796    8.3979 H   0  0  0  0  0  0  0  0  0  0  0  0
  -78.8258  -12.3165    8.8780 H   0  0  0  0  0  0  0  0  0  0  0  0
  -77.9985  -10.7704    9.1828 H   0  0  0  0  0  0  0  0  0  0  0  0
  -78.5703  -10.7852   12.8212 H   0  0  0  0  0  0  0  0  0  0  0  0
  -77.5675  -10.0632   11.5175 H   0  0  0  0  0  0  0  0  0  0  0  0
  -79.3479   -9.8248   11.5175 H   0  0  0  0  0  0  0  0  0  0  0  0
  -77.2631  -12.7471   11.8478 H   0  0  0  0  0  0  0  0  0  0  0  0
  -79.8702  -13.5489   11.3058 H   0  0  0  0  0  0  0  0  0  0  0  0
  -79.9330  -12.2640   12.6087 H   0  0  0  0  0  0  0  0  0  0  0  0
  -82.1248  -12.6498   11.1637 H   0  0  0  0  0  0  0  0  0  0  0  0
  -81.6423  -10.9983   11.4292 H   0  0  0  0  0  0  0  0  0  0  0  0
  -80.6377  -12.8487    9.3632 H   0  0  0  0  0  0  0  0  0  0  0  0
  -81.9264  -12.2971    7.7885 H   0  0  0  0  0  0  0  0  0  0  0  0
  -85.7487  -11.0932    7.6965 H   0  0  0  0  0  0  0  0  0  0  0  0
  -81.7095  -11.0464    6.3292 H   0  0  0  0  0  0  0  0  0  0  0  0
  -82.4605  -11.1478    4.0073 H   0  0  0  0  0  0  0  0  0  0  0  0
  -84.8604  -11.2637    3.5645 H   0  0  0  0  0  0  0  0  0  0  0  0
  -89.1441  -11.2429    4.4391 H   0  0  0  0  0  0  0  0  0  0  0  0
  -90.5080  -11.3869    6.4378 H   0  0  0  0  0  0  0  0  0  0  0  0
  -90.2346  -13.0227    5.5961 H   0  0  0  0  0  0  0  0  0  0  0  0
  -89.5206  -11.7806    7.8193 H   0  0  0  0  0  0  0  0  0  0  0  0
  -91.7749  -13.5802    7.3459 H   0  0  0  0  0  0  0  0  0  0  0  0
  -93.5716  -13.7148   12.1622 H   0  0  0  0  0  0  0  0  0  0  0  0
  -93.9691  -16.1696   12.0405 H   0  0  0  0  0  0  0  0  0  0  0  0
  -93.0936  -17.4483   10.1165 H   0  0  0  0  0  0  0  0  0  0  0  0
  -91.1480  -17.4102    8.5550 H   0  0  0  0  0  0  0  0  0  0  0  0
  -92.5225  -16.9170    7.5089 H   0  0  0  0  0  0  0  0  0  0  0  0
  -91.0043  -15.9570    7.5089 H   0  0  0  0  0  0  0  0  0  0  0  0
  1  2  1  0
  1  8  1  0
  2  3  1  0
  3  4  1  0
  3  5  1  0
  3  6  1  0
  6  7  1  0
  7  8  1  0
  8  9  1  0
  9 10  1  0
 10 11  2  0
 10 12  1  0
 12 13  2  0
 12 14  1  0
 13 17  1  0
 14 15  2  0
 15 16  1  0
 16 17  2  0
 17 18  1  0
 18 19  2  0
 19 20  1  0
 19 21  1  0
 20 23  1  0
 21 22  1  0
 22 23  1  0
 23 24  1  0
 24 25  2  0
 24 26  1  0
 26 27  1  0
 27 28  2  0
 27 33  1  0
 28 29  1  0
 28 30  1  0
 30 31  2  0
 31 32  1  0
 32 33  2  0
 33 34  1  0
  1 35  1  0
  1 36  1  0
  2 37  1  0
  2 38  1  0
  4 39  1  0
  4 40  1  0
  4 41  1  0
  5 42  1  0
  6 43  1  0
  6 44  1  0
  7 45  1  0
  7 46  1  0
  8 47  1  0
  9 48  1  0
 13 49  1  0
 14 50  1  0
 15 51  1  0
 16 52  1  0
 21 53  1  0
 22 54  1  0
 22 55  1  0
 23 56  1  0
 26 57  1  0
 30 58  1  0
 31 59  1  0
 32 60  1  0
 34 61  1  0
 34 62  1  0
 34 63  1  0
A    1
CAS
A    2
CAT
A    3
CAU
A    4
CAW
A    5
OAV
A    6
CAX
A    7
CAY
A    8
CAR
A    9
NAQ
A   10
CAP
A   11
OAZ
A   12
CAO
A   13
CBA
A   14
CAN
A   15
CAM
A   16
CAL
A   17
CAK
A   18
NAJ
A   19
CAI
A   20
SBB
A   21
NAH
A   22
CAG
A   23
CAF
A   24
CAE
A   25
OBC
A   26
NAD
A   27
CAC
A   28
CAB
A   29
CLA
A   30
CBH
A   31
CBG
A   32
CBF
A   33
CBD
A   34
CBE
M  END
