5NKE_90B_A_1001
     RDKit          3D

 56 59  0  0  0  0  0  0  0  0999 V2000
  116.9330   14.0010   42.2650 C   0  0  0  0  0  0  0  0  0  0  0  0
  115.9830   13.3060   43.1560 C   0  0  0  0  0  0  0  0  0  0  0  0
  115.8580   11.8910   42.8380 N   0  0  0  0  0  0  0  0  0  0  0  0
  116.9960   11.3110   42.1580 C   0  0  0  0  0  0  0  0  0  0  0  0
  118.2350   11.9390   42.6880 C   0  0  0  0  0  0  0  0  0  0  0  0
  118.2600   13.3240   42.2690 C   0  0  0  0  0  0  0  0  0  0  0  0
  119.1540   13.7980   43.2610 N   0  0  0  0  0  0  0  0  0  0  0  0
  119.5080   14.9850   43.6310 C   0  0  0  0  0  0  0  0  0  0  0  0
  118.9660   15.9690   43.3730 O   0  0  0  0  0  0  0  0  0  0  0  0
  120.4890   15.0820   44.5700 C   0  0  0  0  0  0  0  0  0  0  0  0
  121.8300   14.9930   44.3400 C   0  0  0  0  0  0  0  0  0  0  0  0
  120.0420   15.3560   45.7700 C   0  0  0  0  0  0  0  0  0  0  0  0
  120.8560   15.4870   46.8000 C   0  0  0  0  0  0  0  0  0  0  0  0
  119.9380   15.9320   48.2670 Br  0  0  0  0  0  0  0  0  0  0  0  0
  122.2280   15.3810   46.6130 C   0  0  0  0  0  0  0  0  0  0  0  0
  122.7250   15.1320   45.3670 C   0  0  0  0  0  0  0  0  0  0  0  0
  124.0140   15.0260   45.0890 N   0  0  0  0  0  0  0  0  0  0  0  0
  125.0150   15.5410   45.7990 C   0  0  0  0  0  0  0  0  0  0  0  0
  124.9860   16.3500   47.3460 S   0  0  0  0  0  0  0  0  0  0  0  0
  126.2820   15.5300   45.4100 N   0  0  0  0  0  0  0  0  0  0  0  0
  127.1470   16.0550   46.2710 C   0  0  0  0  0  0  0  0  0  0  0  0
  126.6750   16.5750   47.3970 C   0  0  0  0  0  0  0  0  0  0  0  0
  127.2580   17.1640   48.4580 C   0  0  0  0  0  0  0  0  0  0  0  0
  126.5590   17.3010   49.4130 O   0  0  0  0  0  0  0  0  0  0  0  0
  128.5210   17.5200   48.4630 N   0  0  0  0  0  0  0  0  0  0  0  0
  129.0990   18.0940   49.5430 C   0  0  0  0  0  0  0  0  0  0  0  0
  129.4720   17.2790   50.5920 C   0  0  0  0  0  0  0  0  0  0  0  0
  129.2660   15.6050   50.5960 Cl  0  0  0  0  0  0  0  0  0  0  0  0
  130.0850   17.8260   51.6960 C   0  0  0  0  0  0  0  0  0  0  0  0
  130.3390   19.1730   51.7400 C   0  0  0  0  0  0  0  0  0  0  0  0
  129.9410   19.9630   50.6780 C   0  0  0  0  0  0  0  0  0  0  0  0
  129.3440   19.4580   49.5590 C   0  0  0  0  0  0  0  0  0  0  0  0
  128.9750   20.3820   48.4760 C   0  0  0  0  0  0  0  0  0  0  0  0
  117.0570   15.0381   42.6099 H   0  0  0  0  0  0  0  0  0  0  0  0
  116.5321   13.9814   41.2408 H   0  0  0  0  0  0  0  0  0  0  0  0
  116.3345   13.4052   44.1936 H   0  0  0  0  0  0  0  0  0  0  0  0
  114.9947   13.7692   43.0194 H   0  0  0  0  0  0  0  0  0  0  0  0
  115.0314   11.7714   42.2353 H   0  0  0  0  0  0  0  0  0  0  0  0
  116.9178   11.4999   41.0772 H   0  0  0  0  0  0  0  0  0  0  0  0
  117.0224   10.2246   42.3285 H   0  0  0  0  0  0  0  0  0  0  0  0
  118.2393   11.8830   43.7866 H   0  0  0  0  0  0  0  0  0  0  0  0
  119.1205   11.4116   42.3035 H   0  0  0  0  0  0  0  0  0  0  0  0
  118.5535   13.5020   41.2239 H   0  0  0  0  0  0  0  0  0  0  0  0
  119.6139   13.0462   43.7940 H   0  0  0  0  0  0  0  0  0  0  0  0
  122.1965   14.8077   43.3195 H   0  0  0  0  0  0  0  0  0  0  0  0
  118.9598   15.4802   45.9232 H   0  0  0  0  0  0  0  0  0  0  0  0
  122.9118   15.4974   47.4667 H   0  0  0  0  0  0  0  0  0  0  0  0
  124.2667   14.4949   44.2435 H   0  0  0  0  0  0  0  0  0  0  0  0
  128.2258   16.0585   46.0562 H   0  0  0  0  0  0  0  0  0  0  0  0
  129.0892   17.3575   47.6194 H   0  0  0  0  0  0  0  0  0  0  0  0
  130.3709   17.1837   52.5420 H   0  0  0  0  0  0  0  0  0  0  0  0
  130.8510   19.6173   52.6062 H   0  0  0  0  0  0  0  0  0  0  0  0
  130.1131   21.0478   50.7371 H   0  0  0  0  0  0  0  0  0  0  0  0
  128.5998   21.3216   48.9076 H   0  0  0  0  0  0  0  0  0  0  0  0
  129.8587   20.5908   47.8552 H   0  0  0  0  0  0  0  0  0  0  0  0
  128.1905   19.9247   47.8552 H   0  0  0  0  0  0  0  0  0  0  0  0
  4  5  1  0
  4  3  1  0
  1  6  1  0
  1  2  1  0
  6  5  1  0
  6  7  1  0
  3  2  1  0
  7  8  1  0
  9  8  2  0
  8 10  1  0
 11 10  2  0
 11 16  1  0
 10 12  1  0
 17 16  1  0
 17 18  1  0
 16 15  2  0
 20 18  2  0
 20 21  1  0
 12 13  2  0
 18 19  1  0
 21 22  2  0
 15 13  1  0
 13 14  1  0
 19 22  1  0
 22 23  1  0
 23 25  1  0
 23 24  2  0
 25 26  1  0
 33 32  1  0
 26 32  1  0
 26 27  2  0
 32 31  2  0
 27 28  1  0
 27 29  1  0
 31 30  1  0
 29 30  2  0
  1 34  1  0
  1 35  1  0
  2 36  1  0
  2 37  1  0
  3 38  1  0
  4 39  1  0
  4 40  1  0
  5 41  1  0
  5 42  1  0
  6 43  1  0
  7 44  1  0
 11 45  1  0
 12 46  1  0
 15 47  1  0
 17 48  1  0
 21 49  1  0
 25 50  1  0
 29 51  1  0
 30 52  1  0
 31 53  1  0
 33 54  1  0
 33 55  1  0
 33 56  1  0
A    1
CAT
A    2
CAU
A    3
NAV
A    4
CAW
A    5
CAX
A    6
CAS
A    7
NAR
A    8
CAQ
A    9
OAY
A   10
CAP
A   11
CAZ
A   12
CAO
A   13
CAM
A   14
BR
A   15
CAL
A   16
CAK
A   17
NAJ
A   18
CAI
A   19
SBA
A   20
NAH
A   21
CAG
A   22
CAF
A   23
CAE
A   24
OBB
A   25
NAD
A   26
CAC
A   27
CAB
A   28
CL
A   29
CBG
A   30
CBF
A   31
CBE
A   32
CBC
A   33
CBD
M  END
