5NKG_8ZK_A_1001
     RDKit          3D

 62 65  0  0  0  0  0  0  0  0999 V2000
  -80.3100  -13.1690    1.7210 C   0  0  0  0  0  0  0  0  0  0  0  0
  -78.9960  -13.1880    2.5010 C   0  0  0  0  0  0  0  0  0  0  0  0
  -78.8920  -11.9850    3.3390 N   0  0  0  0  0  0  0  0  0  0  0  0
  -79.9870  -12.0330    4.3230 C   0  0  0  0  0  0  0  0  0  0  0  0
  -81.3500  -12.1120    3.6690 C   0  0  0  0  0  0  0  0  0  0  0  0
  -81.4510  -13.2630    2.7090 C   0  0  0  0  0  0  0  0  0  0  0  0
  -81.1620  -14.5270    3.3130 N   0  0  0  0  0  0  0  0  0  0  0  0
  -81.7000  -15.2400    4.2820 C   0  0  0  0  0  0  0  0  0  0  0  0
  -81.1790  -16.3230    4.5430 O   0  0  0  0  0  0  0  0  0  0  0  0
  -82.7870  -14.8610    5.0750 C   0  0  0  0  0  0  0  0  0  0  0  0
  -84.1220  -14.8460    4.6580 C   0  0  0  0  0  0  0  0  0  0  0  0
  -82.4870  -14.6170    6.4070 C   0  0  0  0  0  0  0  0  0  0  0  0
  -83.4710  -14.3120    7.3260 C   0  0  0  0  0  0  0  0  0  0  0  0
  -83.1200  -14.0450    8.6540 C   0  0  0  0  0  0  0  0  0  0  0  0
  -84.0010  -14.7130    9.7010 C   0  0  0  0  0  0  0  0  0  0  0  0
  -84.7930  -14.3020    6.8960 C   0  0  0  0  0  0  0  0  0  0  0  0
  -85.1270  -14.5820    5.5850 C   0  0  0  0  0  0  0  0  0  0  0  0
  -86.3850  -14.5660    5.1360 N   0  0  0  0  0  0  0  0  0  0  0  0
  -87.4300  -15.0810    5.8070 C   0  0  0  0  0  0  0  0  0  0  0  0
  -87.3700  -15.9150    7.3280 S   0  0  0  0  0  0  0  0  0  0  0  0
  -88.6590  -15.0190    5.2820 N   0  0  0  0  0  0  0  0  0  0  0  0
  -89.5800  -15.6000    6.0940 C   0  0  0  0  0  0  0  0  0  0  0  0
  -89.1350  -16.1650    7.2610 C   0  0  0  0  0  0  0  0  0  0  0  0
  -89.8330  -16.8080    8.3040 C   0  0  0  0  0  0  0  0  0  0  0  0
  -89.2370  -16.9910    9.3730 O   0  0  0  0  0  0  0  0  0  0  0  0
  -91.1340  -17.2030    8.1440 N   0  0  0  0  0  0  0  0  0  0  0  0
  -91.8130  -17.8250    9.1960 C   0  0  0  0  0  0  0  0  0  0  0  0
  -92.2580  -17.0650   10.2790 C   0  0  0  0  0  0  0  0  0  0  0  0
  -91.9830  -15.3340   10.3340 Cl  0  0  0  0  0  0  0  0  0  0  0  0
  -92.9640  -17.6950   11.3120 C   0  0  0  0  0  0  0  0  0  0  0  0
  -93.2060  -19.0670   11.2820 C   0  0  0  0  0  0  0  0  0  0  0  0
  -92.7830  -19.8280   10.1960 C   0  0  0  0  0  0  0  0  0  0  0  0
  -92.0890  -19.2050    9.1450 C   0  0  0  0  0  0  0  0  0  0  0  0
  -91.6540  -19.9830    8.0670 C   0  0  0  0  0  0  0  0  0  0  0  0
  -80.3895  -12.2326    1.1492 H   0  0  0  0  0  0  0  0  0  0  0  0
  -80.3461  -14.0153    1.0193 H   0  0  0  0  0  0  0  0  0  0  0  0
  -78.9653  -14.0819    3.1413 H   0  0  0  0  0  0  0  0  0  0  0  0
  -78.1552  -13.2082    1.7920 H   0  0  0  0  0  0  0  0  0  0  0  0
  -77.9836  -11.9723    3.8244 H   0  0  0  0  0  0  0  0  0  0  0  0
  -79.8497  -12.9186    4.9608 H   0  0  0  0  0  0  0  0  0  0  0  0
  -79.9507  -11.1031    4.9096 H   0  0  0  0  0  0  0  0  0  0  0  0
  -81.5353  -11.1762    3.1213 H   0  0  0  0  0  0  0  0  0  0  0  0
  -82.0972  -12.2657    4.4615 H   0  0  0  0  0  0  0  0  0  0  0  0
  -82.4716  -13.2079    2.3023 H   0  0  0  0  0  0  0  0  0  0  0  0
  -80.3421  -14.9873    2.8925 H   0  0  0  0  0  0  0  0  0  0  0  0
  -84.3761  -15.0413    3.6057 H   0  0  0  0  0  0  0  0  0  0  0  0
  -81.4396  -14.6677    6.7392 H   0  0  0  0  0  0  0  0  0  0  0  0
  -82.0864  -14.3881    8.8090 H   0  0  0  0  0  0  0  0  0  0  0  0
  -83.2469  -12.9612    8.7928 H   0  0  0  0  0  0  0  0  0  0  0  0
  -83.6449  -14.4430   10.7061 H   0  0  0  0  0  0  0  0  0  0  0  0
  -85.0399  -14.3736    9.5766 H   0  0  0  0  0  0  0  0  0  0  0  0
  -83.9546  -15.8050    9.5766 H   0  0  0  0  0  0  0  0  0  0  0  0
  -85.5908  -14.0659    7.6156 H   0  0  0  0  0  0  0  0  0  0  0  0
  -86.5655  -14.1324    4.2193 H   0  0  0  0  0  0  0  0  0  0  0  0
  -90.6463  -15.6165    5.8244 H   0  0  0  0  0  0  0  0  0  0  0  0
  -91.6135  -17.0416    7.2468 H   0  0  0  0  0  0  0  0  0  0  0  0
  -93.3327  -17.0980   12.1591 H   0  0  0  0  0  0  0  0  0  0  0  0
  -93.7325  -19.5497   12.1185 H   0  0  0  0  0  0  0  0  0  0  0  0
  -92.9902  -20.9077   10.1608 H   0  0  0  0  0  0  0  0  0  0  0  0
  -91.1499  -20.8846    8.4453 H   0  0  0  0  0  0  0  0  0  0  0  0
  -92.5189  -20.2764    7.4540 H   0  0  0  0  0  0  0  0  0  0  0  0
  -90.9511  -19.3998    7.4540 H   0  0  0  0  0  0  0  0  0  0  0  0
  1  2  1  0
  1  6  1  0
  2  3  1  0
  6  7  1  0
  6  5  1  0
  7  8  1  0
  3  4  1  0
  5  4  1  0
  8  9  2  0
  8 10  1  0
 11 10  2  0
 11 17  1  0
 10 12  1  0
 18 17  1  0
 18 19  1  0
 21 19  2  0
 21 22  1  0
 17 16  2  0
 19 20  1  0
 22 23  2  0
 12 13  2  0
 16 13  1  0
 23 20  1  0
 23 24  1  0
 13 14  1  0
 34 33  1  0
 26 24  1  0
 26 27  1  0
 24 25  2  0
 14 15  1  0
 33 27  1  0
 33 32  2  0
 27 28  2  0
 32 31  1  0
 28 29  1  0
 28 30  1  0
 31 30  2  0
  1 35  1  0
  1 36  1  0
  2 37  1  0
  2 38  1  0
  3 39  1  0
  4 40  1  0
  4 41  1  0
  5 42  1  0
  5 43  1  0
  6 44  1  0
  7 45  1  0
 11 46  1  0
 12 47  1  0
 14 48  1  0
 14 49  1  0
 15 50  1  0
 15 51  1  0
 15 52  1  0
 16 53  1  0
 18 54  1  0
 22 55  1  0
 26 56  1  0
 30 57  1  0
 31 58  1  0
 32 59  1  0
 34 60  1  0
 34 61  1  0
 34 62  1  0
A    1
CAU
A    2
CAV
A    3
NAW
A    4
CAX
A    5
CAY
A    6
CAT
A    7
NAS
A    8
CAR
A    9
OAZ
A   10
CAQ
A   11
CBA
A   12
CAP
A   13
CAM
A   14
CAN
A   15
CAO
A   16
CAL
A   17
CAK
A   18
NAJ
A   19
CAI
A   20
SBB
A   21
NAH
A   22
CAG
A   23
CAF
A   24
CAE
A   25
OBC
A   26
NAD
A   27
CAC
A   28
CAB
A   29
CL
A   30
CBH
A   31
CBG
A   32
CBF
A   33
CBD
A   34
CBE
M  END
