5NKL_91T_A_904
     RDKit          3D

 56 57  0  0  0  0  0  0  0  0999 V2000
   18.3170  -20.6170   -5.2970 N   0  0  0  0  0  0  0  0  0  0  0  0
   18.9110  -19.4780   -5.9060 C   0  0  0  0  0  0  0  0  0  0  0  0
   17.9350  -21.5320   -6.0200 O   0  0  0  0  0  0  0  0  0  0  0  0
   19.2960  -18.3220   -5.2930 C   0  0  0  0  0  0  0  0  0  0  0  0
   17.3610  -20.0710   -8.8590 C   0  0  0  0  0  0  0  0  0  0  0  0
   17.5710  -19.2190  -10.1030 C   0  0  0  0  0  0  0  0  0  0  0  0
   18.8820  -19.7830  -10.6320 C   0  0  0  0  0  0  0  0  0  0  0  0
   19.6460  -18.8930  -11.5860 C   0  0  0  0  0  0  0  0  0  0  0  0
   19.7610  -17.4340   -6.2930 C   0  0  0  0  0  0  0  0  0  0  0  0
   20.1660  -16.0740   -6.1190 C   0  0  0  0  0  0  0  0  0  0  0  0
   20.4620  -14.9210   -6.0350 C   0  0  0  0  0  0  0  0  0  0  0  0
   20.6580  -13.4680   -6.0540 C   0  0  0  0  0  0  0  0  0  0  0  0
   21.9720  -13.0100   -5.4310 C   0  0  0  0  0  0  0  0  0  0  0  0
   22.7970  -12.2240   -6.4260 C   0  0  0  0  0  0  0  0  0  0  0  0
   19.6690  -18.0760   -7.4530 C   0  0  0  0  0  0  0  0  0  0  0  0
   18.7810  -20.2750   -8.3440 C   0  0  0  0  0  0  0  0  0  0  0  0
   19.1370  -19.3330   -7.2620 N   0  0  0  0  0  0  0  0  0  0  0  0
   18.2250  -20.6330   -4.0650 O   0  0  0  0  0  0  0  0  0  0  0  0
   15.7760  -16.7820  -11.5080 O   0  0  0  0  0  0  0  0  0  0  0  0
   16.6210  -14.7530  -12.6860 O   0  0  0  0  0  0  0  0  0  0  0  0
   17.6470  -12.4800  -13.0020 O   0  0  0  0  0  0  0  0  0  0  0  0
   18.3300  -14.3260  -14.5270 O   0  0  0  0  0  0  0  0  0  0  0  0
   16.0020  -13.3280  -14.6240 O   0  0  0  0  0  0  0  0  0  0  0  0
   19.6590  -20.0410   -9.4450 O   0  0  0  0  0  0  0  0  0  0  0  0
   22.7010  -14.1700   -5.0060 O   0  0  0  0  0  0  0  0  0  0  0  0
   22.0840  -11.1790   -7.0800 O   0  0  0  0  0  0  0  0  0  0  0  0
   16.5270  -19.4200  -11.0630 O   0  0  0  0  0  0  0  0  0  0  0  0
   19.9770  -17.6610  -10.9140 O   0  0  0  0  0  0  0  0  0  0  0  0
   20.0610  -16.1030  -12.8880 O   0  0  0  0  0  0  0  0  0  0  0  0
   20.4720  -15.1640  -10.5980 O   0  0  0  0  0  0  0  0  0  0  0  0
   18.1420  -16.0390  -11.2170 O   0  0  0  0  0  0  0  0  0  0  0  0
   17.4070  -17.1030  -13.3850 O   0  0  0  0  0  0  0  0  0  0  0  0
   19.7190  -16.1770  -11.3660 P   0  0  0  0  0  0  0  0  0  0  0  0
   16.9670  -16.2520  -12.2730 P   0  0  0  0  0  0  0  0  0  0  0  0
   17.2030  -13.7310  -13.7660 P   0  0  0  0  0  0  0  0  0  0  0  0
   19.2529  -18.1161   -4.2133 H   0  0  0  0  0  0  0  0  0  0  0  0
   16.7428  -19.5436   -8.1176 H   0  0  0  0  0  0  0  0  0  0  0  0
   16.8322  -21.0140   -9.0619 H   0  0  0  0  0  0  0  0  0  0  0  0
   17.5765  -18.1378   -9.9004 H   0  0  0  0  0  0  0  0  0  0  0  0
   18.6739  -20.6713  -11.2465 H   0  0  0  0  0  0  0  0  0  0  0  0
   20.5693  -19.3995  -11.9039 H   0  0  0  0  0  0  0  0  0  0  0  0
   19.0287  -18.6798  -12.4711 H   0  0  0  0  0  0  0  0  0  0  0  0
   20.6352  -13.1298   -7.1005 H   0  0  0  0  0  0  0  0  0  0  0  0
   19.8501  -13.0305   -5.4491 H   0  0  0  0  0  0  0  0  0  0  0  0
   21.7587  -12.3541   -4.5741 H   0  0  0  0  0  0  0  0  0  0  0  0
   23.6490  -11.7783   -5.8918 H   0  0  0  0  0  0  0  0  0  0  0  0
   23.1074  -12.9323   -7.2083 H   0  0  0  0  0  0  0  0  0  0  0  0
   19.9738  -17.6633   -8.4260 H   0  0  0  0  0  0  0  0  0  0  0  0
   18.8634  -21.2923   -7.9337 H   0  0  0  0  0  0  0  0  0  0  0  0
   15.9476  -16.7056  -10.5360 H   0  0  0  0  0  0  0  0  0  0  0  0
   17.5869  -12.6492  -12.0284 H   0  0  0  0  0  0  0  0  0  0  0  0
   15.2467  -13.0746  -14.0362 H   0  0  0  0  0  0  0  0  0  0  0  0
   22.7216  -14.2027   -4.0168 H   0  0  0  0  0  0  0  0  0  0  0  0
   21.6772  -10.5828   -6.4024 H   0  0  0  0  0  0  0  0  0  0  0  0
   15.6722  -19.5846  -10.5914 H   0  0  0  0  0  0  0  0  0  0  0  0
   21.0223  -15.8950  -13.0005 H   0  0  0  0  0  0  0  0  0  0  0  0
  1  2  1  0
  1  3  2  0
  1 18  1  0
  2  4  2  0
  2 17  1  0
  4  9  1  0
  5  6  1  0
  5 16  1  0
  6  7  1  0
  6 27  1  0
  7  8  1  0
  7 24  1  0
  8 28  1  0
  9 10  1  0
  9 15  2  0
 10 11  3  0
 11 12  1  0
 12 13  1  0
 13 14  1  0
 13 25  1  0
 14 26  1  0
 15 17  1  0
 16 17  1  0
 16 24  1  0
 19 34  1  0
 20 34  1  0
 20 35  1  0
 21 35  1  0
 22 35  2  0
 23 35  1  0
 28 33  1  0
 29 33  1  0
 30 33  2  0
 31 33  1  0
 31 34  1  0
 32 34  2  0
  4 36  1  0
  5 37  1  0
  5 38  1  0
  6 39  1  0
  7 40  1  0
  8 41  1  0
  8 42  1  0
 12 43  1  0
 12 44  1  0
 13 45  1  0
 14 46  1  0
 14 47  1  0
 15 48  1  0
 16 49  1  0
 19 50  1  0
 21 51  1  0
 23 52  1  0
 25 53  1  0
 26 54  1  0
 27 55  1  0
 29 56  1  0
M  CHG  2   1   1  18  -1
A    1
N
A    2
C
A    3
O
A    4
C1
A    5
C10
A    6
C11
A    7
C12
A    8
C13
A    9
C2
A   10
C3
A   11
C4
A   12
C5
A   13
C6
A   14
C7
A   15
C8
A   16
C9
A   17
N1
A   18
O1
A   19
O10
A   20
O11
A   21
O12
A   22
O13
A   23
O14
A   24
O15
A   25
O2
A   26
O3
A   27
O4
A   28
O5
A   29
O6
A   30
O7
A   31
O8
A   32
O9
A   33
P
A   34
P1
A   35
P2
M  END
