5NMA_9CW_A_4000
     RDKit          3D

 76 79  0  0  0  0  0  0  0  0999 V2000
  -33.5110   23.7600   -5.8050 O   0  0  0  0  0  0  0  0  0  0  0  0
  -34.1560   22.5790   -5.3230 C   0  0  0  0  0  0  0  0  0  0  0  0
  -35.5620   22.4760   -5.8900 C   0  0  0  0  0  0  0  0  0  0  0  0
  -36.1840   21.2560   -5.2440 C   0  0  0  0  0  0  0  0  0  0  0  0
  -36.1520   21.4030   -3.8230 O   0  0  0  0  0  0  0  0  0  0  0  0
  -35.4380   19.9970   -5.6510 C   0  0  0  0  0  0  0  0  0  0  0  0
  -33.3310   21.3850   -5.7310 C   0  0  0  0  0  0  0  0  0  0  0  0
  -32.1680   21.5750   -6.3260 C   0  0  0  0  0  0  0  0  0  0  0  0
  -33.9400   20.0760   -5.4860 C   0  0  0  0  0  0  0  0  0  0  0  0
  -33.1950   18.9660   -5.2660 C   0  0  0  0  0  0  0  0  0  0  0  0
  -31.7930   18.8900   -5.0830 C   0  0  0  0  0  0  0  0  0  0  0  0
  -31.0790   17.7650   -4.9480 C   0  0  0  0  0  0  0  0  0  0  0  0
  -29.5810   17.7420   -4.7400 C   0  0  0  0  0  0  0  0  0  0  0  0
  -31.6910   16.4010   -5.0950 C   0  0  0  0  0  0  0  0  0  0  0  0
  -31.0400   15.6240   -6.2350 C   0  0  0  0  0  0  0  0  0  0  0  0
  -29.5220   15.6720   -6.1140 C   0  0  0  0  0  0  0  0  0  0  0  0
  -28.9790   17.1050   -6.0230 C   0  0  0  0  0  0  0  0  0  0  0  0
  -29.4360   17.9220   -7.2480 C   0  0  0  0  0  0  0  0  0  0  0  0
  -27.4720   17.2780   -5.6800 C   0  0  0  0  0  0  0  0  0  0  0  0
  -27.3670   18.7420   -5.2090 C   0  0  0  0  0  0  0  0  0  0  0  0
  -28.7400   19.0230   -4.5290 C   0  0  0  0  0  0  0  0  0  0  0  0
  -26.3740   16.8190   -6.6510 C   0  0  0  0  0  0  0  0  0  0  0  0
  -25.0290   16.6170   -5.9540 C   0  0  0  0  0  0  0  0  0  0  0  0
  -26.2170   17.7720   -7.8460 C   0  0  0  0  0  0  0  0  0  0  0  0
  -26.8550   17.2350   -9.1290 C   0  0  0  0  0  0  0  0  0  0  0  0
  -25.8410   17.5440  -10.2320 C   0  0  0  0  0  0  0  0  0  0  0  0
  -24.5010   17.5770   -9.5080 C   0  0  0  0  0  0  0  0  0  0  0  0
  -24.8450   18.0840   -8.1990 O   0  0  0  0  0  0  0  0  0  0  0  0
  -23.3890   18.3780  -10.2020 C   0  0  0  0  0  0  0  0  0  0  0  0
  -23.7020   19.8650  -10.1580 C   0  0  0  0  0  0  0  0  0  0  0  0
  -22.1140   18.1780   -9.5570 O   0  0  0  0  0  0  0  0  0  0  0  0
  -23.2510   17.9100  -11.6440 C   0  0  0  0  0  0  0  0  0  0  0  0
  -33.2112   24.3089   -5.0376 H   0  0  0  0  0  0  0  0  0  0  0  0
  -34.2378   22.6165   -4.2267 H   0  0  0  0  0  0  0  0  0  0  0  0
  -36.1414   23.3774   -5.6414 H   0  0  0  0  0  0  0  0  0  0  0  0
  -35.5489   22.3889   -6.9865 H   0  0  0  0  0  0  0  0  0  0  0  0
  -37.2268   21.1660   -5.5823 H   0  0  0  0  0  0  0  0  0  0  0  0
  -36.3420   20.5300   -3.3966 H   0  0  0  0  0  0  0  0  0  0  0  0
  -35.6568   19.7952   -6.7100 H   0  0  0  0  0  0  0  0  0  0  0  0
  -35.7848   19.1973   -4.9801 H   0  0  0  0  0  0  0  0  0  0  0  0
  -31.7840   22.5957   -6.4697 H   0  0  0  0  0  0  0  0  0  0  0  0
  -31.5829   20.7126   -6.6781 H   0  0  0  0  0  0  0  0  0  0  0  0
  -33.7430   18.0131   -5.2248 H   0  0  0  0  0  0  0  0  0  0  0  0
  -31.2405   19.8406   -5.0486 H   0  0  0  0  0  0  0  0  0  0  0  0
  -29.5113   17.2324   -3.7677 H   0  0  0  0  0  0  0  0  0  0  0  0
  -32.7656   16.5104   -5.3031 H   0  0  0  0  0  0  0  0  0  0  0  0
  -31.5317   15.8452   -4.1592 H   0  0  0  0  0  0  0  0  0  0  0  0
  -31.3410   16.0691   -7.1948 H   0  0  0  0  0  0  0  0  0  0  0  0
  -31.3682   14.5753   -6.1841 H   0  0  0  0  0  0  0  0  0  0  0  0
  -29.2239   15.1247   -5.2076 H   0  0  0  0  0  0  0  0  0  0  0  0
  -29.1021   15.2151   -7.0222 H   0  0  0  0  0  0  0  0  0  0  0  0
  -29.9470   18.8355   -6.9096 H   0  0  0  0  0  0  0  0  0  0  0  0
  -28.5597   18.1952   -7.8542 H   0  0  0  0  0  0  0  0  0  0  0  0
  -30.1274   17.3183   -7.8542 H   0  0  0  0  0  0  0  0  0  0  0  0
  -27.2132   16.5273   -4.9188 H   0  0  0  0  0  0  0  0  0  0  0  0
  -26.5434   18.8625   -4.4899 H   0  0  0  0  0  0  0  0  0  0  0  0
  -27.1556   19.4367   -6.0353 H   0  0  0  0  0  0  0  0  0  0  0  0
  -28.6033   19.2196   -3.4554 H   0  0  0  0  0  0  0  0  0  0  0  0
  -29.2326   19.9077   -4.9587 H   0  0  0  0  0  0  0  0  0  0  0  0
  -26.7055   15.8434   -7.0360 H   0  0  0  0  0  0  0  0  0  0  0  0
  -25.1740   16.6388   -4.8638 H   0  0  0  0  0  0  0  0  0  0  0  0
  -24.6058   15.6452   -6.2483 H   0  0  0  0  0  0  0  0  0  0  0  0
  -24.3390   17.4216   -6.2483 H   0  0  0  0  0  0  0  0  0  0  0  0
  -26.7272   18.6761   -7.4824 H   0  0  0  0  0  0  0  0  0  0  0  0
  -27.8102   17.7428   -9.3281 H   0  0  0  0  0  0  0  0  0  0  0  0
  -27.0789   16.1601   -9.0616 H   0  0  0  0  0  0  0  0  0  0  0  0
  -26.0564   18.5164  -10.6989 H   0  0  0  0  0  0  0  0  0  0  0  0
  -25.8631   16.8030  -11.0447 H   0  0  0  0  0  0  0  0  0  0  0  0
  -24.0390   16.5790   -9.4830 H   0  0  0  0  0  0  0  0  0  0  0  0
  -23.7713   20.1943   -9.1107 H   0  0  0  0  0  0  0  0  0  0  0  0
  -22.9017   20.4233  -10.6657 H   0  0  0  0  0  0  0  0  0  0  0  0
  -24.6595   20.0533  -10.6657 H   0  0  0  0  0  0  0  0  0  0  0  0
  -22.2346   18.1969   -8.5746 H   0  0  0  0  0  0  0  0  0  0  0  0
  -22.9399   16.8550  -11.6589 H   0  0  0  0  0  0  0  0  0  0  0  0
  -24.2182   18.0144  -12.1575 H   0  0  0  0  0  0  0  0  0  0  0  0
  -22.4952   18.5224  -12.1575 H   0  0  0  0  0  0  0  0  0  0  0  0
 32 29  1  0
 26 27  1  0
 26 25  1  0
 29 30  1  0
 29 31  1  0
 29 27  1  0
 27 28  1  0
 25 24  1  0
 28 24  1  0
 24 22  1  0
 18 17  1  0
 22 23  1  0
 22 19  1  0
  8  7  2  0
 15 16  1  0
 15 14  1  0
 16 17  1  0
 17 19  1  0
 17 13  1  0
  3  2  1  0
  3  4  1  0
  1  2  1  0
  7  9  1  0
  7  2  1  0
 19 20  1  0
  6  9  1  0
  6  4  1  0
  9 10  2  0
 10 11  1  0
  4  5  1  0
 20 21  1  0
 14 12  1  0
 11 12  2  0
 12 13  1  0
 13 21  1  0
  1 33  1  0
  2 34  1  0
  3 35  1  0
  3 36  1  0
  4 37  1  0
  5 38  1  0
  6 39  1  0
  6 40  1  0
  8 41  1  0
  8 42  1  0
 10 43  1  0
 11 44  1  0
 13 45  1  0
 14 46  1  0
 14 47  1  0
 15 48  1  0
 15 49  1  0
 16 50  1  0
 16 51  1  0
 18 52  1  0
 18 53  1  0
 18 54  1  0
 19 55  1  0
 20 56  1  0
 20 57  1  0
 21 58  1  0
 21 59  1  0
 22 60  1  0
 23 61  1  0
 23 62  1  0
 23 63  1  0
 24 64  1  0
 25 65  1  0
 25 66  1  0
 26 67  1  0
 26 68  1  0
 27 69  1  0
 30 70  1  0
 30 71  1  0
 30 72  1  0
 31 73  1  0
 32 74  1  0
 32 75  1  0
 32 76  1  0
A    1
O3
A    2
C25
A    3
C24
A    4
C23
A    5
O2
A    6
C22
A    7
C26
A    8
C27
A    9
C21
A   10
C20
A   11
C19
A   12
C15
A   13
C2
A   14
C16
A   15
C17
A   16
C18
A   17
C1
A   18
C
A   19
C5
A   20
C4
A   21
C3
A   22
C6
A   23
C14
A   24
C7
A   25
C13
A   26
C12
A   27
C8
A   28
O
A   29
C9
A   30
C11
A   31
O1
A   32
C10
M  END
