5NOB_92T_A_1301
     RDKit          3D

 51 56  0  0  0  0  0  0  0  0999 V2000
   24.3720    8.5280  -26.3240 C   0  0  0  0  0  0  0  0  0  0  0  0
   24.8810    6.4120  -27.3480 C   0  0  0  0  0  0  0  0  0  0  0  0
   30.1990   -0.8170  -26.8870 O   0  0  0  0  0  0  0  0  0  0  0  0
   31.0130   -0.1580  -27.5210 C   0  0  0  0  0  0  0  0  0  0  0  0
   32.1820   -0.6020  -27.9250 N   0  0  0  0  0  0  0  0  0  0  0  0
   32.7620    0.4080  -28.5590 C   0  0  0  0  0  0  0  0  0  0  0  0
   33.9620    0.4620  -29.1620 C   0  0  0  0  0  0  0  0  0  0  0  0
   34.3490    1.6570  -29.7700 C   0  0  0  0  0  0  0  0  0  0  0  0
   35.5840    1.7480  -30.4140 C   0  0  0  0  0  0  0  0  0  0  0  0
   36.5600    1.9090  -30.9350 N   0  0  0  0  0  0  0  0  0  0  0  0
   33.5020    2.7630  -29.7280 C   0  0  0  0  0  0  0  0  0  0  0  0
   32.2700    2.6450  -29.0840 C   0  0  0  0  0  0  0  0  0  0  0  0
   31.9310    1.4760  -28.5170 C   0  0  0  0  0  0  0  0  0  0  0  0
   30.8390    1.1120  -27.8490 N   0  0  0  0  0  0  0  0  0  0  0  0
   29.5320    1.7610  -27.4570 C   0  0  0  0  0  0  0  0  0  0  0  0
   28.7560    2.1220  -28.7270 C   0  0  0  0  0  0  0  0  0  0  0  0
   29.6020    3.2260  -27.0520 C   0  0  0  0  0  0  0  0  0  0  0  0
   28.7630    3.5880  -28.2950 C   0  0  0  0  0  0  0  0  0  0  0  0
   27.3550    4.0940  -27.8730 C   0  0  0  0  0  0  0  0  0  0  0  0
   26.3650    3.3590  -27.3640 N   0  0  0  0  0  0  0  0  0  0  0  0
   25.3530    4.1290  -27.1260 N   0  0  0  0  0  0  0  0  0  0  0  0
   25.7010    5.3670  -27.4860 C   0  0  0  0  0  0  0  0  0  0  0  0
   25.2330    7.4300  -26.5290 N   0  0  0  0  0  0  0  0  0  0  0  0
   23.1400    8.5410  -26.9880 N   0  0  0  0  0  0  0  0  0  0  0  0
   22.7700    7.4840  -27.8240 C   0  0  0  0  0  0  0  0  0  0  0  0
   23.6440    6.4230  -28.0010 C   0  0  0  0  0  0  0  0  0  0  0  0
   26.9630    5.3640  -27.9500 N   0  0  0  0  0  0  0  0  0  0  0  0
   27.7130    6.3710  -28.4110 C   0  0  0  0  0  0  0  0  0  0  0  0
   27.4390    6.9140  -29.6660 C   0  0  0  0  0  0  0  0  0  0  0  0
   26.0770    6.3260  -30.6080 Cl  0  0  0  0  0  0  0  0  0  0  0  0
   28.2230    7.9520  -30.1620 C   0  0  0  0  0  0  0  0  0  0  0  0
   29.2860    8.4310  -29.3980 C   0  0  0  0  0  0  0  0  0  0  0  0
   29.5800    7.8810  -28.1490 C   0  0  0  0  0  0  0  0  0  0  0  0
   28.7920    6.8450  -27.6530 C   0  0  0  0  0  0  0  0  0  0  0  0
   24.6617    9.3543  -25.6582 H   0  0  0  0  0  0  0  0  0  0  0  0
   32.5698   -1.5449  -27.7786 H   0  0  0  0  0  0  0  0  0  0  0  0
   34.6243   -0.4162  -29.1759 H   0  0  0  0  0  0  0  0  0  0  0  0
   33.8000    3.7134  -30.1949 H   0  0  0  0  0  0  0  0  0  0  0  0
   31.5822    3.5024  -29.0411 H   0  0  0  0  0  0  0  0  0  0  0  0
   29.1603    1.0539  -26.7008 H   0  0  0  0  0  0  0  0  0  0  0  0
   27.7533    1.6736  -28.7862 H   0  0  0  0  0  0  0  0  0  0  0  0
   29.1309    1.8262  -29.7180 H   0  0  0  0  0  0  0  0  0  0  0  0
   30.6180    3.6475  -27.0539 H   0  0  0  0  0  0  0  0  0  0  0  0
   29.2898    3.5487  -26.0478 H   0  0  0  0  0  0  0  0  0  0  0  0
   29.0900    4.3629  -29.0040 H   0  0  0  0  0  0  0  0  0  0  0  0
   21.7963    7.4940  -28.3357 H   0  0  0  0  0  0  0  0  0  0  0  0
   23.3638    5.5862  -28.6577 H   0  0  0  0  0  0  0  0  0  0  0  0
   28.0057    8.3900  -31.1474 H   0  0  0  0  0  0  0  0  0  0  0  0
   29.9029    9.2553  -29.7853 H   0  0  0  0  0  0  0  0  0  0  0  0
   30.4276    8.2629  -27.5610 H   0  0  0  0  0  0  0  0  0  0  0  0
   29.0155    6.4014  -26.6716 H   0  0  0  0  0  0  0  0  0  0  0  0
 10  9  3  0
 30 29  1  0
  9  8  1  0
 31 29  2  0
 31 32  1  0
  8 11  2  0
  8  7  1  0
 11 12  1  0
 29 28  1  0
 32 33  2  0
  7  6  2  0
 12 13  2  0
 16 18  1  0
 16 15  1  0
  6 13  1  0
  6  5  1  0
 13 14  1  0
 28 27  1  0
 28 34  2  0
 18 19  1  0
 18 17  1  0
 33 34  1  0
 26 25  2  0
 26  2  1  0
 27 19  1  0
 27 22  1  0
  5  4  1  0
 19 20  2  0
 14  4  1  0
 14 15  1  0
 25 24  1  0
  4  3  2  0
 22  2  1  0
 22 21  2  0
 15 17  1  0
 20 21  1  0
  2 23  2  0
 24  1  2  0
 23  1  1  0
  1 35  1  0
  5 36  1  0
  7 37  1  0
 11 38  1  0
 12 39  1  0
 15 40  1  0
 16 41  1  0
 16 42  1  0
 17 43  1  0
 17 44  1  0
 18 45  1  0
 25 46  1  0
 26 47  1  0
 31 48  1  0
 32 49  1  0
 33 50  1  0
 34 51  1  0
A    1
C2
A    2
C4
A    3
OBD
A    4
CAY
A    5
NAX
A    6
CAW
A    7
CBC
A    8
CBB
A    9
CBE
A   10
NBF
A   11
CBA
A   12
CAZ
A   13
CAV
A   14
NAU
A   15
CAN
A   16
CBH
A   17
CBG
A   18
CAH
A   19
CAE
A   20
NAD
A   21
NAC
A   22
CAB
A   23
N3
A   24
N1
A   25
C6
A   26
C5
A   27
NAA
A   28
CAG
A   29
CAI
A   30
CL1
A   31
CAJ
A   32
CAK
A   33
CAL
A   34
CAM
M  END
