5NON_93H_A_501
     RDKit          3D

 42 43  0  0  0  0  0  0  0  0999 V2000
  -18.2050  -10.6130   18.7210 C   0  0  0  0  0  0  0  0  0  0  0  0
  -17.5350   -8.7210   21.8480 C   0  0  0  0  0  0  0  0  0  0  0  0
  -18.9270   -6.7790   21.8390 C   0  0  0  0  0  0  0  0  0  0  0  0
  -19.3670   -7.1040   20.5550 C   0  0  0  0  0  0  0  0  0  0  0  0
  -18.2620   -7.0540   15.1480 C   0  0  0  0  0  0  0  0  0  0  0  0
  -17.9280   -5.7320   15.1700 C   0  0  0  0  0  0  0  0  0  0  0  0
  -16.9080   -3.0980   14.9750 C   0  0  0  0  0  0  0  0  0  0  0  0
  -17.0250   -5.2740   16.0770 C   0  0  0  0  0  0  0  0  0  0  0  0
  -16.4930   -6.1420   17.0220 C   0  0  0  0  0  0  0  0  0  0  0  0
  -16.7540   -7.4900   16.9100 C   0  0  0  0  0  0  0  0  0  0  0  0
  -17.6580   -7.9520   15.9370 C   0  0  0  0  0  0  0  0  0  0  0  0
  -18.1090   -9.3930   15.8680 C   0  0  0  0  0  0  0  0  0  0  0  0
  -19.2590   -9.5900   16.7860 C   0  0  0  0  0  0  0  0  0  0  0  0
  -17.5510  -10.4270   19.9860 C   0  0  0  0  0  0  0  0  0  0  0  0
  -18.0200   -9.1160   20.6060 C   0  0  0  0  0  0  0  0  0  0  0  0
  -17.9800   -7.5630   22.4500 C   0  0  0  0  0  0  0  0  0  0  0  0
  -18.9510   -8.2810   19.9680 C   0  0  0  0  0  0  0  0  0  0  0  0
  -18.6550   -9.3280   18.1270 N   0  0  0  0  0  0  0  0  0  0  0  0
  -16.5840   -3.9840   16.0670 O   0  0  0  0  0  0  0  0  0  0  0  0
  -19.3490   -5.6870   22.5440 O   0  0  0  0  0  0  0  0  0  0  0  0
  -17.5230   -7.1450   23.6340 O   0  0  0  0  0  0  0  0  0  0  0  0
  -19.0813  -11.2616   18.8674 H   0  0  0  0  0  0  0  0  0  0  0  0
  -17.4803  -11.0686   18.0302 H   0  0  0  0  0  0  0  0  0  0  0  0
  -16.7843   -9.3423   22.3584 H   0  0  0  0  0  0  0  0  0  0  0  0
  -20.0422   -6.4249   20.0137 H   0  0  0  0  0  0  0  0  0  0  0  0
  -19.0516   -7.3931   14.4613 H   0  0  0  0  0  0  0  0  0  0  0  0
  -18.3893   -5.0362   14.4537 H   0  0  0  0  0  0  0  0  0  0  0  0
  -17.2599   -2.1358   15.3755 H   0  0  0  0  0  0  0  0  0  0  0  0
  -16.0120   -2.9329   14.3585 H   0  0  0  0  0  0  0  0  0  0  0  0
  -17.6991   -3.5499   14.3585 H   0  0  0  0  0  0  0  0  0  0  0  0
  -15.8734   -5.7592   17.8464 H   0  0  0  0  0  0  0  0  0  0  0  0
  -16.2555   -8.2046   17.5814 H   0  0  0  0  0  0  0  0  0  0  0  0
  -18.4144   -9.6339   14.8391 H   0  0  0  0  0  0  0  0  0  0  0  0
  -17.2814  -10.0535   16.1660 H   0  0  0  0  0  0  0  0  0  0  0  0
  -20.0674   -8.8764   16.5684 H   0  0  0  0  0  0  0  0  0  0  0  0
  -19.7207  -10.5848   16.7012 H   0  0  0  0  0  0  0  0  0  0  0  0
  -17.8031  -11.2618   20.6565 H   0  0  0  0  0  0  0  0  0  0  0  0
  -16.4616  -10.3960   19.8372 H   0  0  0  0  0  0  0  0  0  0  0  0
  -19.3544   -8.5694   18.9861 H   0  0  0  0  0  0  0  0  0  0  0  0
  -17.8487   -8.6954   18.0238 H   0  0  0  0  0  0  0  0  0  0  0  0
  -19.3424   -5.7040   23.5338 H   0  0  0  0  0  0  0  0  0  0  0  0
  -17.9143   -7.5029   24.4700 H   0  0  0  0  0  0  0  0  0  0  0  0
  6  5  2  0
  6  8  1  0
  5 11  1  0
 19  8  1  0
 19  7  1  0
 12 11  1  0
 12 13  1  0
  8  9  2  0
 11 10  2  0
 13 18  1  0
  9 10  1  0
 18  1  1  0
  1 14  1  0
 14 15  1  0
 17 15  1  0
 17  4  2  0
 15  2  2  0
  4  3  1  0
  2 16  1  0
  3 16  2  0
  3 20  1  0
 16 21  1  0
  1 22  1  0
  1 23  1  0
  2 24  1  0
  4 25  1  0
  5 26  1  0
  6 27  1  0
  7 28  1  0
  7 29  1  0
  7 30  1  0
  9 31  1  0
 10 32  1  0
 12 33  1  0
 12 34  1  0
 13 35  1  0
 13 36  1  0
 14 37  1  0
 14 38  1  0
 17 39  1  0
 18 40  1  0
 20 41  1  0
 21 42  1  0
A    1
C10
A    2
C13
A    3
C15
A    4
C17
A    5
C20
A    6
C21
A    7
C01
A    8
C03
A    9
C04
A   10
C05
A   11
C06
A   12
C07
A   13
C08
A   14
C11
A   15
C12
A   16
C14
A   17
C18
A   18
N09
A   19
O02
A   20
O16
A   21
O19
M  END
