5NPC_94E_A_922
     RDKit          3D

 28 29  0  0  0  0  0  0  0  0999 V2000
   29.9860   80.4010   34.9690 C   0  0  0  0  0  0  0  0  0  0  0  0
   27.6220   80.3310   35.9740 C   0  0  0  0  0  0  0  0  0  0  0  0
   30.6330   79.8630   36.2320 C   0  0  0  0  0  0  0  0  0  0  0  0
   28.5350   79.9020   34.8320 C   0  0  0  0  0  0  0  0  0  0  0  0
   28.1940   79.6510   37.2130 C   0  0  0  0  0  0  0  0  0  0  0  0
   29.7040   79.9430   37.4650 C   0  0  0  0  0  0  0  0  0  0  0  0
   30.2860   79.0110   38.5400 C   0  0  0  0  0  0  0  0  0  0  0  0
   31.8410   80.6440   36.4410 O   0  0  0  0  0  0  0  0  0  0  0  0
   30.2080   81.8080   35.1270 O   0  0  0  0  0  0  0  0  0  0  0  0
   30.0560   77.6320   38.2150 O   0  0  0  0  0  0  0  0  0  0  0  0
   27.3580   80.0840   38.2680 O   0  0  0  0  0  0  0  0  0  0  0  0
   26.2240   79.9700   35.7760 O   0  0  0  0  0  0  0  0  0  0  0  0
   27.8990   80.1930   33.5960 O   0  0  0  0  0  0  0  0  0  0  0  0
   31.5880   82.0580   35.8210 S   0  0  0  0  0  0  0  0  0  0  0  0
   32.5470   82.4660   34.8300 O   0  0  0  0  0  0  0  0  0  0  0  0
   31.5420   83.0790   36.8680 O   0  0  0  0  0  0  0  0  0  0  0  0
   30.3929   80.0588   34.0060 H   0  0  0  0  0  0  0  0  0  0  0  0
   27.6050   81.4278   36.0558 H   0  0  0  0  0  0  0  0  0  0  0  0
   30.8555   78.7929   36.1082 H   0  0  0  0  0  0  0  0  0  0  0  0
   28.6764   78.8120   34.8749 H   0  0  0  0  0  0  0  0  0  0  0  0
   28.1911   78.5566   37.1021 H   0  0  0  0  0  0  0  0  0  0  0  0
   29.6907   80.9943   37.7883 H   0  0  0  0  0  0  0  0  0  0  0  0
   31.3694   79.1851   38.6167 H   0  0  0  0  0  0  0  0  0  0  0  0
   29.7878   79.2301   39.4960 H   0  0  0  0  0  0  0  0  0  0  0  0
   29.9684   77.1065   39.0494 H   0  0  0  0  0  0  0  0  0  0  0  0
   27.7813   79.8648   39.1357 H   0  0  0  0  0  0  0  0  0  0  0  0
   25.7847   79.8566   36.6559 H   0  0  0  0  0  0  0  0  0  0  0  0
   27.0125   80.5986   33.7685 H   0  0  0  0  0  0  0  0  0  0  0  0
 13  4  1  0
 15 14  2  0
  4  1  1  0
  4  2  1  0
  1  9  1  0
  1  3  1  0
  9 14  1  0
 12  2  1  0
 14  8  1  0
 14 16  2  0
  2  5  1  0
  3  8  1  0
  3  6  1  0
  5  6  1  0
  5 11  1  0
  6  7  1  0
 10  7  1  0
  1 17  1  0
  2 18  1  0
  3 19  1  0
  4 20  1  0
  5 21  1  0
  6 22  1  0
  7 23  1  0
  7 24  1  0
 10 25  1  0
 11 26  1  0
 12 27  1  0
 13 28  1  0
A    1
C1
A    2
C3
A    3
C6
A    4
C2
A    5
C4
A    6
C5
A    7
C7
A    8
O6
A    9
O1
A   10
O7
A   11
O4
A   12
O3
A   13
O2
A   14
S14
A   15
O15
A   16
O16
M  END
