5NPD_94B_A_915
     RDKit          3D

 25 26  0  0  0  0  0  0  0  0999 V2000
   29.6660   80.0320   34.7440 C   0  0  0  0  0  0  0  0  0  0  0  0
   28.1650   79.8580   34.7300 C   0  0  0  0  0  0  0  0  0  0  0  0
   27.4150   80.4100   35.9420 C   0  0  0  0  0  0  0  0  0  0  0  0
   28.0320   79.7990   37.2010 C   0  0  0  0  0  0  0  0  0  0  0  0
   29.5310   80.1430   37.3910 C   0  0  0  0  0  0  0  0  0  0  0  0
   30.1750   79.2380   38.4620 C   0  0  0  0  0  0  0  0  0  0  0  0
   30.3510   80.1080   36.1020 C   0  0  0  0  0  0  0  0  0  0  0  0
   30.0030   77.8490   38.2000 O   0  0  0  0  0  0  0  0  0  0  0  0
   27.2970   80.2440   38.3230 O   0  0  0  0  0  0  0  0  0  0  0  0
   26.0520   80.0080   35.8090 O   0  0  0  0  0  0  0  0  0  0  0  0
   27.7390   80.3550   33.4830 O   0  0  0  0  0  0  0  0  0  0  0  0
   30.2650   81.2940   35.2110 N   0  0  0  0  0  0  0  0  0  0  0  0
   29.7703   79.4289   33.8300 H   0  0  0  0  0  0  0  0  0  0  0  0
   27.9081   78.7938   34.8368 H   0  0  0  0  0  0  0  0  0  0  0  0
   27.4790   81.5061   36.0082 H   0  0  0  0  0  0  0  0  0  0  0  0
   27.9809   78.7056   37.0920 H   0  0  0  0  0  0  0  0  0  0  0  0
   29.5478   81.1883   37.7330 H   0  0  0  0  0  0  0  0  0  0  0  0
   31.2526   79.4555   38.5015 H   0  0  0  0  0  0  0  0  0  0  0  0
   29.6744   79.4549   39.4172 H   0  0  0  0  0  0  0  0  0  0  0  0
   31.1428   79.5233   36.5932 H   0  0  0  0  0  0  0  0  0  0  0  0
   29.9420   77.3567   39.0567 H   0  0  0  0  0  0  0  0  0  0  0  0
   27.7593   79.9641   39.1525 H   0  0  0  0  0  0  0  0  0  0  0  0
   25.6534   79.8904   36.7076 H   0  0  0  0  0  0  0  0  0  0  0  0
   27.1013   81.0989   33.6246 H   0  0  0  0  0  0  0  0  0  0  0  0
   31.1167   81.6530   34.7564 H   0  0  0  0  0  0  0  0  0  0  0  0
 11  2  1  0
  2  1  1  0
  2  3  1  0
  1 12  1  0
  1  7  1  0
 12  7  1  0
 10  3  1  0
  3  4  1  0
  7  5  1  0
  4  5  1  0
  4  9  1  0
  5  6  1  0
  8  6  1  0
  1 13  1  0
  2 14  1  0
  3 15  1  0
  4 16  1  0
  5 17  1  0
  6 18  1  0
  6 19  1  0
  7 20  1  0
  8 21  1  0
  9 22  1  0
 10 23  1  0
 11 24  1  0
 12 25  1  0
A    1
C1
A    2
C2
A    3
C3
A    4
C4
A    5
C5
A    6
C6
A    7
C7
A    8
O6
A    9
O4
A   10
O2
A   11
O3
A   12
N12
M  END
