5NRW_96N_A_1201
     RDKit          3D

 47 49  0  0  0  0  0  0  0  0999 V2000
    8.8310   16.8190   62.3070 C   0  0  0  0  0  0  0  0  0  0  0  0
    8.9630   12.9940   62.3560 C   0  0  0  0  0  0  0  0  0  0  0  0
    8.6710   15.3710   61.9650 C   0  0  0  0  0  0  0  0  0  0  0  0
    9.1750   18.9750   61.8910 C   0  0  0  0  0  0  0  0  0  0  0  0
    8.9520   18.8600   63.3430 C   0  0  0  0  0  0  0  0  0  0  0  0
    9.4560   12.1100   60.0540 C   0  0  0  0  0  0  0  0  0  0  0  0
   10.3300   11.7280   59.0330 C   0  0  0  0  0  0  0  0  0  0  0  0
   11.7070   11.8540   59.2220 C   0  0  0  0  0  0  0  0  0  0  0  0
   12.1920   12.3440   60.4320 C   0  0  0  0  0  0  0  0  0  0  0  0
   11.3120   12.7270   61.4620 C   0  0  0  0  0  0  0  0  0  0  0  0
    8.7100   17.4330   63.6600 C   0  0  0  0  0  0  0  0  0  0  0  0
    8.4380   16.7570   64.9880 C   0  0  0  0  0  0  0  0  0  0  0  0
    9.6750   16.8090   65.8620 C   0  0  0  0  0  0  0  0  0  0  0  0
    8.9560   20.0240   64.2600 C   0  0  0  0  0  0  0  0  0  0  0  0
    8.3130   19.8750   65.5970 C   0  0  0  0  0  0  0  0  0  0  0  0
   13.5700   12.4640   60.6010 C   0  0  0  0  0  0  0  0  0  0  0  0
   14.0870   12.9520   61.7920 C   0  0  0  0  0  0  0  0  0  0  0  0
   13.2170   13.3370   62.8110 C   0  0  0  0  0  0  0  0  0  0  0  0
   11.8420   13.2280   62.6490 C   0  0  0  0  0  0  0  0  0  0  0  0
    9.0840   17.7460   61.3810 N   0  0  0  0  0  0  0  0  0  0  0  0
    9.4540   20.2090   61.1000 C   0  0  0  0  0  0  0  0  0  0  0  0
    9.0990   14.3900   62.7410 N   0  0  0  0  0  0  0  0  0  0  0  0
    8.1360   15.1530   60.8790 O   0  0  0  0  0  0  0  0  0  0  0  0
    9.4430   21.0710   63.9040 O   0  0  0  0  0  0  0  0  0  0  0  0
    9.9410   12.6060   61.2680 C   0  0  0  0  0  0  0  0  0  0  0  0
    7.9396   12.8251   61.9898 H   0  0  0  0  0  0  0  0  0  0  0  0
    9.1773   12.3761   63.2405 H   0  0  0  0  0  0  0  0  0  0  0  0
    8.3706   12.0192   59.9005 H   0  0  0  0  0  0  0  0  0  0  0  0
    9.9353   11.3305   58.0863 H   0  0  0  0  0  0  0  0  0  0  0  0
   12.4044   11.5683   58.4208 H   0  0  0  0  0  0  0  0  0  0  0  0
    7.6111   17.2740   65.4968 H   0  0  0  0  0  0  0  0  0  0  0  0
    8.1682   15.7059   64.8083 H   0  0  0  0  0  0  0  0  0  0  0  0
    9.3767   16.7965   66.9207 H   0  0  0  0  0  0  0  0  0  0  0  0
   10.3108   15.9368   65.6498 H   0  0  0  0  0  0  0  0  0  0  0  0
   10.2353   17.7315   65.6498 H   0  0  0  0  0  0  0  0  0  0  0  0
    9.0608   20.0483   66.3849 H   0  0  0  0  0  0  0  0  0  0  0  0
    7.4992   20.6084   65.6962 H   0  0  0  0  0  0  0  0  0  0  0  0
    7.9047   18.8584   65.6962 H   0  0  0  0  0  0  0  0  0  0  0  0
   14.2498   12.1708   59.7874 H   0  0  0  0  0  0  0  0  0  0  0  0
   15.1750   13.0346   61.9314 H   0  0  0  0  0  0  0  0  0  0  0  0
   13.6241   13.7315   63.7537 H   0  0  0  0  0  0  0  0  0  0  0  0
   11.1685   13.5386   63.4614 H   0  0  0  0  0  0  0  0  0  0  0  0
    9.1970   17.5349   60.3792 H   0  0  0  0  0  0  0  0  0  0  0  0
    9.6438   21.0485   61.7850 H   0  0  0  0  0  0  0  0  0  0  0  0
   10.3380   20.0461   60.4659 H   0  0  0  0  0  0  0  0  0  0  0  0
    8.5859   20.4422   60.4659 H   0  0  0  0  0  0  0  0  0  0  0  0
    9.5407   14.6205   63.6425 H   0  0  0  0  0  0  0  0  0  0  0  0
  7  8  1  0
  7  6  2  0
  8  9  2  0
  6 25  1  0
  9 16  1  0
  9 10  1  0
 16 17  2  0
 23  3  2  0
 21  4  1  0
 25 10  2  0
 25  2  1  0
 20  4  1  0
 20  1  1  0
 10 19  1  0
 17 18  1  0
  4  5  2  0
  3  1  1  0
  3 22  1  0
  1 11  2  0
  2 22  1  0
 19 18  2  0
  5 11  1  0
  5 14  1  0
 11 12  1  0
 24 14  2  0
 14 15  1  0
 12 13  1  0
  2 26  1  0
  2 27  1  0
  6 28  1  0
  7 29  1  0
  8 30  1  0
 12 31  1  0
 12 32  1  0
 13 33  1  0
 13 34  1  0
 13 35  1  0
 15 36  1  0
 15 37  1  0
 15 38  1  0
 16 39  1  0
 17 40  1  0
 18 41  1  0
 19 42  1  0
 20 43  1  0
 21 44  1  0
 21 45  1  0
 21 46  1  0
 22 47  1  0
A    1
C2
A    2
C3
A    3
C1
A    4
C4
A    5
C5
A    6
C13
A    7
C14
A    8
C15
A    9
C16
A   10
C17
A   11
C6
A   12
C7
A   13
C8
A   14
C9
A   15
C10
A   16
C18
A   17
C19
A   18
C20
A   19
C21
A   20
N3
A   21
C12
A   22
N13
A   23
O15
A   24
O16
A   25
C11
M  END
