5NTK_99N_A_501
     RDKit          3D

103108  0  0  0  0  0  0  0  0999 V2000
   10.8290    9.2150   16.9160 O   0  0  0  0  0  0  0  0  0  0  0  0
   11.5430    7.1130   15.8520 O   0  0  0  0  0  0  0  0  0  0  0  0
   15.7760    6.9690   26.0900 C   0  0  0  0  0  0  0  0  0  0  0  0
   15.7340    5.1130   21.7830 C   0  0  0  0  0  0  0  0  0  0  0  0
   14.5850    5.1560   20.8010 C   0  0  0  0  0  0  0  0  0  0  0  0
   13.6670    6.1410   20.7180 C   0  0  0  0  0  0  0  0  0  0  0  0
   12.5660    6.0420   19.6640 C   0  0  0  0  0  0  0  0  0  0  0  0
   12.5090    7.2540   22.6840 C   0  0  0  0  0  0  0  0  0  0  0  0
   16.9100    6.3280   23.7860 C   0  0  0  0  0  0  0  0  0  0  0  0
   16.8180    7.3480   24.9710 C   0  0  0  0  0  0  0  0  0  0  0  0
   18.2890    7.2580   25.5220 C   0  0  0  0  0  0  0  0  0  0  0  0
   18.6280    5.7280   25.3710 C   0  0  0  0  0  0  0  0  0  0  0  0
   17.5880    5.0900   24.4100 C   0  0  0  0  0  0  0  0  0  0  0  0
   18.7080    7.8610   26.9330 C   0  0  0  0  0  0  0  0  0  0  0  0
   20.2540    7.7330   27.1770 C   0  0  0  0  0  0  0  0  0  0  0  0
   21.1410    8.4180   26.0930 C   0  0  0  0  0  0  0  0  0  0  0  0
   22.5100    8.8680   26.5340 C   0  0  0  0  0  0  0  0  0  0  0  0
   24.1450    9.2170   28.3320 C   0  0  0  0  0  0  0  0  0  0  0  0
   25.0290    7.9720   28.4920 C   0  0  0  0  0  0  0  0  0  0  0  0
   25.4120    7.2280   27.3620 C   0  0  0  0  0  0  0  0  0  0  0  0
   26.2130    6.0880   27.5030 C   0  0  0  0  0  0  0  0  0  0  0  0
   26.6390    5.6710   28.7750 C   0  0  0  0  0  0  0  0  0  0  0  0
   26.2510    6.4140   29.9040 C   0  0  0  0  0  0  0  0  0  0  0  0
   25.4510    7.5570   29.7650 C   0  0  0  0  0  0  0  0  0  0  0  0
   28.5500    4.4340   29.8430 C   0  0  0  0  0  0  0  0  0  0  0  0
   10.7180    7.7630   16.8500 S   0  0  0  0  0  0  0  0  0  0  0  0
   10.9950    7.1620   18.2210 O   0  0  0  0  0  0  0  0  0  0  0  0
   12.2610    7.3560   18.8850 C   0  0  0  0  0  0  0  0  0  0  0  0
   12.2350    8.5890   19.8330 C   0  0  0  0  0  0  0  0  0  0  0  0
   13.4890    8.6360   20.7460 C   0  0  0  0  0  0  0  0  0  0  0  0
   13.6880    7.3670   21.6480 C   0  0  0  0  0  0  0  0  0  0  0  0
   15.0770    7.5010   22.3940 C   0  0  0  0  0  0  0  0  0  0  0  0
   15.5870    6.1270   22.9610 C   0  0  0  0  0  0  0  0  0  0  0  0
   23.2840    9.2730   25.6810 O   0  0  0  0  0  0  0  0  0  0  0  0
   22.8250    8.8030   27.8510 N   0  0  0  0  0  0  0  0  0  0  0  0
   27.4350    4.5290   28.9370 O   0  0  0  0  0  0  0  0  0  0  0  0
   28.9200    2.9310   29.9300 C   0  0  0  0  0  0  0  0  0  0  0  0
   30.1710    2.5420   29.2230 N   0  0  0  0  0  0  0  0  0  0  0  0
   30.3290    3.0710   27.8390 C   0  0  0  0  0  0  0  0  0  0  0  0
   31.7170    2.6790   27.2710 C   0  0  0  0  0  0  0  0  0  0  0  0
   31.8770    1.2480   27.3300 O   0  0  0  0  0  0  0  0  0  0  0  0
   31.7940    0.7230   28.6710 C   0  0  0  0  0  0  0  0  0  0  0  0
   30.4240    1.0770   29.3050 C   0  0  0  0  0  0  0  0  0  0  0  0
   18.2900    9.3500   27.1680 C   0  0  0  0  0  0  0  0  0  0  0  0
   16.4490    8.7140   24.2950 C   0  0  0  0  0  0  0  0  0  0  0  0
   15.1350    8.6600   23.4610 C   0  0  0  0  0  0  0  0  0  0  0  0
    9.2780    7.4370   16.5570 O   0  0  0  0  0  0  0  0  0  0  0  0
   10.8509    9.5016   17.8634 H   0  0  0  0  0  0  0  0  0  0  0  0
   16.2258    7.1326   27.0804 H   0  0  0  0  0  0  0  0  0  0  0  0
   14.8803    7.5989   25.9855 H   0  0  0  0  0  0  0  0  0  0  0  0
   15.4943    5.9108   25.9855 H   0  0  0  0  0  0  0  0  0  0  0  0
   15.7948    4.0982   22.2031 H   0  0  0  0  0  0  0  0  0  0  0  0
   16.6427    5.3913   21.2290 H   0  0  0  0  0  0  0  0  0  0  0  0
   14.4900    4.3160   20.0972 H   0  0  0  0  0  0  0  0  0  0  0  0
   11.6414    5.7253   20.1689 H   0  0  0  0  0  0  0  0  0  0  0  0
   12.9306    5.3248   18.9139 H   0  0  0  0  0  0  0  0  0  0  0  0
   12.9140    7.2928   23.7060 H   0  0  0  0  0  0  0  0  0  0  0  0
   11.8087    8.0891   22.5351 H   0  0  0  0  0  0  0  0  0  0  0  0
   11.9801    6.3010   22.5351 H   0  0  0  0  0  0  0  0  0  0  0  0
   17.5183    6.6959   22.9466 H   0  0  0  0  0  0  0  0  0  0  0  0
   18.8934    7.9675   24.9378 H   0  0  0  0  0  0  0  0  0  0  0  0
   18.5763    5.2369   26.3539 H   0  0  0  0  0  0  0  0  0  0  0  0
   19.6435    5.6031   24.9670 H   0  0  0  0  0  0  0  0  0  0  0  0
   16.8621    4.4743   24.9613 H   0  0  0  0  0  0  0  0  0  0  0  0
   18.0339    4.4121   23.6673 H   0  0  0  0  0  0  0  0  0  0  0  0
   18.1447    7.2513   27.6547 H   0  0  0  0  0  0  0  0  0  0  0  0
   20.5097    6.6635   27.2039 H   0  0  0  0  0  0  0  0  0  0  0  0
   20.4640    8.2508   28.1245 H   0  0  0  0  0  0  0  0  0  0  0  0
   20.5994    9.3029   25.7276 H   0  0  0  0  0  0  0  0  0  0  0  0
   21.3189    7.6457   25.3301 H   0  0  0  0  0  0  0  0  0  0  0  0
   24.6035    9.9046   27.6061 H   0  0  0  0  0  0  0  0  0  0  0  0
   24.0449    9.7299   29.2999 H   0  0  0  0  0  0  0  0  0  0  0  0
   25.0806    7.5432   26.3616 H   0  0  0  0  0  0  0  0  0  0  0  0
   26.5105    5.5155   26.6121 H   0  0  0  0  0  0  0  0  0  0  0  0
   26.5779    6.0957   30.9049 H   0  0  0  0  0  0  0  0  0  0  0  0
   25.1533    8.1300   30.6556 H   0  0  0  0  0  0  0  0  0  0  0  0
   29.4023    5.0135   29.4587 H   0  0  0  0  0  0  0  0  0  0  0  0
   28.2933    4.8383   30.8333 H   0  0  0  0  0  0  0  0  0  0  0  0
   13.0519    7.5659   18.1498 H   0  0  0  0  0  0  0  0  0  0  0  0
   12.2015    9.5054   19.2255 H   0  0  0  0  0  0  0  0  0  0  0  0
   11.3454    8.5098   20.4752 H   0  0  0  0  0  0  0  0  0  0  0  0
   14.3764    8.7439   20.1050 H   0  0  0  0  0  0  0  0  0  0  0  0
   13.3452    9.4854   21.4300 H   0  0  0  0  0  0  0  0  0  0  0  0
   15.7886    7.8094   21.6139 H   0  0  0  0  0  0  0  0  0  0  0  0
   14.8564    5.7053   23.6670 H   0  0  0  0  0  0  0  0  0  0  0  0
   22.1255    8.4573   28.5234 H   0  0  0  0  0  0  0  0  0  0  0  0
   28.0910    2.3513   29.4978 H   0  0  0  0  0  0  0  0  0  0  0  0
   29.0952    2.7220   30.9957 H   0  0  0  0  0  0  0  0  0  0  0  0
   30.2401    4.1673   27.8567 H   0  0  0  0  0  0  0  0  0  0  0  0
   29.5448    2.6408   27.1987 H   0  0  0  0  0  0  0  0  0  0  0  0
   32.5059    3.1605   27.8675 H   0  0  0  0  0  0  0  0  0  0  0  0
   31.7910    3.0120   26.2252 H   0  0  0  0  0  0  0  0  0  0  0  0
   31.9075   -0.3707   28.6399 H   0  0  0  0  0  0  0  0  0  0  0  0
   32.5950    1.1684   29.2793 H   0  0  0  0  0  0  0  0  0  0  0  0
   29.6277    0.5420   28.7668 H   0  0  0  0  0  0  0  0  0  0  0  0
   30.4354    0.7780   30.3635 H   0  0  0  0  0  0  0  0  0  0  0  0
   18.2341    9.5490   28.2484 H   0  0  0  0  0  0  0  0  0  0  0  0
   19.0357   10.0168   26.7104 H   0  0  0  0  0  0  0  0  0  0  0  0
   17.3062    9.5313   26.7104 H   0  0  0  0  0  0  0  0  0  0  0  0
   17.2732    9.0059   23.6275 H   0  0  0  0  0  0  0  0  0  0  0  0
   16.2889    9.4422   25.1038 H   0  0  0  0  0  0  0  0  0  0  0  0
   15.0258    9.6182   22.9319 H   0  0  0  0  0  0  0  0  0  0  0  0
   14.3221    8.4641   24.1758 H   0  0  0  0  0  0  0  0  0  0  0  0
  2 26  2  0
 47 26  2  0
 26  1  1  0
 26 27  1  0
 27 28  1  0
 28  7  1  0
 28 29  1  0
  7  6  1  0
 29 30  1  0
  6  5  2  0
  6 31  1  0
 30 31  1  0
  5  4  1  0
 31 32  1  0
 31  8  1  0
  4 33  1  0
 32 33  1  0
 32 46  1  0
 33  9  1  0
 46 45  1  0
  9 13  1  0
  9 10  1  0
 45 10  1  0
 13 12  1  0
 10 11  1  0
 10  3  1  0
 12 11  1  0
 11 14  1  0
 34 17  2  0
 16 17  1  0
 16 15  1  0
 17 35  1  0
 14 44  1  0
 14 15  1  0
 40 41  1  0
 40 39  1  0
 41 42  1  0
 20 21  2  0
 20 19  1  0
 21 22  1  0
 39 38  1  0
 35 18  1  0
 18 19  1  0
 19 24  2  0
 42 43  1  0
 22 36  1  0
 22 23  2  0
 36 25  1  0
 38 43  1  0
 38 37  1  0
 24 23  1  0
 25 37  1  0
  1 48  1  0
  3 49  1  0
  3 50  1  0
  3 51  1  0
  4 52  1  0
  4 53  1  0
  5 54  1  0
  7 55  1  0
  7 56  1  0
  8 57  1  0
  8 58  1  0
  8 59  1  0
  9 60  1  0
 11 61  1  0
 12 62  1  0
 12 63  1  0
 13 64  1  0
 13 65  1  0
 14 66  1  0
 15 67  1  0
 15 68  1  0
 16 69  1  0
 16 70  1  0
 18 71  1  0
 18 72  1  0
 20 73  1  0
 21 74  1  0
 23 75  1  0
 24 76  1  0
 25 77  1  0
 25 78  1  0
 28 79  1  0
 29 80  1  0
 29 81  1  0
 30 82  1  0
 30 83  1  0
 32 84  1  0
 33 85  1  0
 35 86  1  0
 37 87  1  0
 37 88  1  0
 39 89  1  0
 39 90  1  0
 40 91  1  0
 40 92  1  0
 42 93  1  0
 42 94  1  0
 43 95  1  0
 43 96  1  0
 44 97  1  0
 44 98  1  0
 44 99  1  0
 45100  1  0
 45101  1  0
 46102  1  0
 46103  1  0
A    1
O2
A    2
O3
A    3
C41
A    4
C42
A    5
C43
A    6
C44
A    7
C45
A    8
C46
A    9
C11
A   10
C12
A   11
C13
A   12
C14
A   13
C15
A   14
C16
A   15
C17
A   16
C18
A   17
C19
A   18
C22
A   19
C23
A   20
C24
A   21
C25
A   22
C26
A   23
C27
A   24
C28
A   25
C30
A   26
S1
A   27
O4
A   28
C5
A   29
C6
A   30
C7
A   31
C8
A   32
C9
A   33
C10
A   34
O20
A   35
N21
A   36
O29
A   37
C31
A   38
N32
A   39
C33
A   40
C34
A   41
O35
A   42
C36
A   43
C37
A   44
C38
A   45
C39
A   46
C40
A   47
O47
M  END
