5NTN_98H_A_601
     RDKit          3D

 79 82  0  0  0  0  0  0  0  0999 V2000
    4.0130    8.1450   42.1950 C   0  0  0  0  0  0  0  0  0  0  0  0
    3.6280    9.1090   43.1860 O   0  0  0  0  0  0  0  0  0  0  0  0
   -0.6010    5.8950   30.2170 C   0  0  0  0  0  0  0  0  0  0  0  0
   -0.7500    3.4210   30.4940 C   0  0  0  0  0  0  0  0  0  0  0  0
    1.0330    4.3590   32.7300 C   0  0  0  0  0  0  0  0  0  0  0  0
    1.6520    4.7470   34.0400 C   0  0  0  0  0  0  0  0  0  0  0  0
   -1.3900    4.7080   36.4670 C   0  0  0  0  0  0  0  0  0  0  0  0
    2.7180    3.6760   41.2910 C   0  0  0  0  0  0  0  0  0  0  0  0
    1.7250    3.2000   40.1760 C   0  0  0  0  0  0  0  0  0  0  0  0
    1.6960    4.2320   38.9770 C   0  0  0  0  0  0  0  0  0  0  0  0
    0.8170    4.0070   37.6860 C   0  0  0  0  0  0  0  0  0  0  0  0
    1.4800    4.9940   36.6470 C   0  0  0  0  0  0  0  0  0  0  0  0
    2.9920    4.6930   36.8690 C   0  0  0  0  0  0  0  0  0  0  0  0
    3.1340    4.5240   38.4060 C   0  0  0  0  0  0  0  0  0  0  0  0
    0.8250    4.8070   35.2730 C   0  0  0  0  0  0  0  0  0  0  0  0
   -0.5310    4.6730   35.1990 C   0  0  0  0  0  0  0  0  0  0  0  0
   -1.3030    4.4840   33.8730 C   0  0  0  0  0  0  0  0  0  0  0  0
   -0.4160    4.9280   32.6400 C   0  0  0  0  0  0  0  0  0  0  0  0
    3.6410    6.7480   42.6330 C   0  0  0  0  0  0  0  0  0  0  0  0
    2.6520    6.0720   42.0170 C   0  0  0  0  0  0  0  0  0  0  0  0
    2.1600    4.6780   42.3360 C   0  0  0  0  0  0  0  0  0  0  0  0
   -1.0740    4.7730   31.2090 C   0  0  0  0  0  0  0  0  0  0  0  0
   -2.5880    4.9130   31.3490 C   0  0  0  0  0  0  0  0  0  0  0  0
   -3.1390    5.7960   32.4380 C   0  0  0  0  0  0  0  0  0  0  0  0
   -2.6060    5.3660   33.8340 C   0  0  0  0  0  0  0  0  0  0  0  0
   -3.3710    4.3430   30.6060 O   0  0  0  0  0  0  0  0  0  0  0  0
    2.8520    4.9830   34.0300 O   0  0  0  0  0  0  0  0  0  0  0  0
   -1.7100    2.9650   33.8920 C   0  0  0  0  0  0  0  0  0  0  0  0
   -0.6910    4.4170   37.8320 C   0  0  0  0  0  0  0  0  0  0  0  0
    1.3410    6.5510   36.8620 C   0  0  0  0  0  0  0  0  0  0  0  0
    0.8940    2.4970   37.2240 C   0  0  0  0  0  0  0  0  0  0  0  0
    0.3230    2.9030   40.8160 C   0  0  0  0  0  0  0  0  0  0  0  0
    4.4600    6.2290   43.7960 C   0  0  0  0  0  0  0  0  0  0  0  0
    5.1013    8.1979   42.0440 H   0  0  0  0  0  0  0  0  0  0  0  0
    3.4850    8.3730   41.2573 H   0  0  0  0  0  0  0  0  0  0  0  0
    3.7785    8.7321   44.0890 H   0  0  0  0  0  0  0  0  0  0  0  0
   -0.2361    6.7605   30.7894 H   0  0  0  0  0  0  0  0  0  0  0  0
    0.2098    5.5062   29.5834 H   0  0  0  0  0  0  0  0  0  0  0  0
   -1.4454    6.2040   29.5834 H   0  0  0  0  0  0  0  0  0  0  0  0
   -0.5635    2.6427   31.2486 H   0  0  0  0  0  0  0  0  0  0  0  0
   -1.6027    3.1252   29.8652 H   0  0  0  0  0  0  0  0  0  0  0  0
    0.1441    3.5438   29.8652 H   0  0  0  0  0  0  0  0  0  0  0  0
    0.9999    3.2622   32.6526 H   0  0  0  0  0  0  0  0  0  0  0  0
    1.6362    4.7711   31.9076 H   0  0  0  0  0  0  0  0  0  0  0  0
   -1.8340    5.7122   36.5340 H   0  0  0  0  0  0  0  0  0  0  0  0
   -2.1023    3.8794   36.3401 H   0  0  0  0  0  0  0  0  0  0  0  0
    3.0621    2.7838   41.8346 H   0  0  0  0  0  0  0  0  0  0  0  0
    3.5109    4.2226   40.7594 H   0  0  0  0  0  0  0  0  0  0  0  0
    2.0677    2.2545   39.7303 H   0  0  0  0  0  0  0  0  0  0  0  0
    1.2002    5.0386   39.5369 H   0  0  0  0  0  0  0  0  0  0  0  0
    3.2851    3.7698   36.3477 H   0  0  0  0  0  0  0  0  0  0  0  0
    3.6392    5.4902   36.4746 H   0  0  0  0  0  0  0  0  0  0  0  0
    3.8071    3.6839   38.6322 H   0  0  0  0  0  0  0  0  0  0  0  0
    3.5581    5.4312   38.8611 H   0  0  0  0  0  0  0  0  0  0  0  0
   -0.3468    6.0214   32.7390 H   0  0  0  0  0  0  0  0  0  0  0  0
    2.1460    6.5917   41.1900 H   0  0  0  0  0  0  0  0  0  0  0  0
    1.0605    4.6625   42.3070 H   0  0  0  0  0  0  0  0  0  0  0  0
    2.5065    4.3895   43.3393 H   0  0  0  0  0  0  0  0  0  0  0  0
   -2.8377    6.8359   32.2436 H   0  0  0  0  0  0  0  0  0  0  0  0
   -4.2351    5.7038   32.4401 H   0  0  0  0  0  0  0  0  0  0  0  0
   -2.4005    6.2833   34.4053 H   0  0  0  0  0  0  0  0  0  0  0  0
   -3.3943    4.7207   34.2489 H   0  0  0  0  0  0  0  0  0  0  0  0
   -1.8016    2.6230   34.9334 H   0  0  0  0  0  0  0  0  0  0  0  0
   -2.6741    2.8372   33.3779 H   0  0  0  0  0  0  0  0  0  0  0  0
   -0.9390    2.3723   33.3779 H   0  0  0  0  0  0  0  0  0  0  0  0
   -0.7472    5.3235   38.4526 H   0  0  0  0  0  0  0  0  0  0  0  0
   -1.2157    3.5657   38.2902 H   0  0  0  0  0  0  0  0  0  0  0  0
    1.3213    6.7721   37.9394 H   0  0  0  0  0  0  0  0  0  0  0  0
    2.1970    7.0630   36.3983 H   0  0  0  0  0  0  0  0  0  0  0  0
    0.4078    6.9033   36.3983 H   0  0  0  0  0  0  0  0  0  0  0  0
    0.9273    1.8441   38.1087 H   0  0  0  0  0  0  0  0  0  0  0  0
    0.0072    2.2524   36.6209 H   0  0  0  0  0  0  0  0  0  0  0  0
    1.8011    2.3439   36.6209 H   0  0  0  0  0  0  0  0  0  0  0  0
    0.4092    2.9213   41.9125 H   0  0  0  0  0  0  0  0  0  0  0  0
   -0.3975    3.6684   40.4920 H   0  0  0  0  0  0  0  0  0  0  0  0
   -0.0253    1.9111   40.4920 H   0  0  0  0  0  0  0  0  0  0  0  0
    3.9855    6.5297   44.7417 H   0  0  0  0  0  0  0  0  0  0  0  0
    4.5140    5.1315   43.7456 H   0  0  0  0  0  0  0  0  0  0  0  0
    5.4755    6.6488   43.7456 H   0  0  0  0  0  0  0  0  0  0  0  0
  3 22  1  0
  4 22  1  0
 26 23  2  0
 22 23  1  0
 22 18  1  0
 23 24  1  0
 24 25  1  0
 18  5  1  0
 18 17  1  0
  5  6  1  0
 25 17  1  0
 17 28  1  0
 17 16  1  0
 27  6  2  0
  6 15  1  0
 16 15  2  0
 16  7  1  0
 15 12  1  0
  7 29  1  0
 12 30  1  0
 12 13  1  0
 12 11  1  0
 13 14  1  0
 31 11  1  0
 11 29  1  0
 11 10  1  0
 14 10  1  0
 10  9  1  0
  9 32  1  0
  9  8  1  0
  8 21  1  0
 20 21  1  0
 20 19  2  0
  1 19  1  0
  1  2  1  0
 19 33  1  0
  1 34  1  0
  1 35  1  0
  2 36  1  0
  3 37  1  0
  3 38  1  0
  3 39  1  0
  4 40  1  0
  4 41  1  0
  4 42  1  0
  5 43  1  0
  5 44  1  0
  7 45  1  0
  7 46  1  0
  8 47  1  0
  8 48  1  0
  9 49  1  0
 10 50  1  0
 13 51  1  0
 13 52  1  0
 14 53  1  0
 14 54  1  0
 18 55  1  0
 20 56  1  0
 21 57  1  0
 21 58  1  0
 24 59  1  0
 24 60  1  0
 25 61  1  0
 25 62  1  0
 28 63  1  0
 28 64  1  0
 28 65  1  0
 29 66  1  0
 29 67  1  0
 30 68  1  0
 30 69  1  0
 30 70  1  0
 31 71  1  0
 31 72  1  0
 31 73  1  0
 32 74  1  0
 32 75  1  0
 32 76  1  0
 33 77  1  0
 33 78  1  0
 33 79  1  0
A    1
C3
A    2
O1
A    3
C41
A    4
C45
A    5
C49
A    6
C52
A    7
C58
A    8
C12
A    9
C15
A   10
C17
A   11
C19
A   12
C20
A   13
C21
A   14
C24
A   15
C27
A   16
C28
A   17
C29
A   18
C30
A   19
C6
A   20
C7
A   21
C9
A   22
C32
A   23
C33
A   24
C34
A   25
C37
A   26
O40
A   27
O53
A   28
C54
A   29
C61
A   30
C64
A   31
C68
A   32
C72
A   33
C76
M  END
