5NTW_98N_A_601
     RDKit          3D

 73 76  0  0  0  0  0  0  0  0999 V2000
   -0.4730   12.1140   69.9670 C   0  0  0  0  0  0  0  0  0  0  0  0
   -0.0830   11.6050   68.7380 C   0  0  0  0  0  0  0  0  0  0  0  0
    1.3030   12.6790   66.9650 C   0  0  0  0  0  0  0  0  0  0  0  0
    1.2630   13.2710   65.5310 C   0  0  0  0  0  0  0  0  0  0  0  0
    2.3650   13.4340   67.8200 C   0  0  0  0  0  0  0  0  0  0  0  0
   -0.1580    6.7550   72.9230 C   0  0  0  0  0  0  0  0  0  0  0  0
    1.3080    6.6080   73.3680 C   0  0  0  0  0  0  0  0  0  0  0  0
    2.8310    6.0330   75.0700 C   0  0  0  0  0  0  0  0  0  0  0  0
    3.9210    6.3290   74.2500 C   0  0  0  0  0  0  0  0  0  0  0  0
    3.6940    6.7710   72.9390 C   0  0  0  0  0  0  0  0  0  0  0  0
    2.3740    6.9140   72.5020 C   0  0  0  0  0  0  0  0  0  0  0  0
    5.9250    7.7140   75.6570 C   0  0  0  0  0  0  0  0  0  0  0  0
    5.9590    8.8720   74.6300 C   0  0  0  0  0  0  0  0  0  0  0  0
   -1.2400   14.7860   67.7910 C   0  0  0  0  0  0  0  0  0  0  0  0
   -1.1550   16.2100   68.3910 C   0  0  0  0  0  0  0  0  0  0  0  0
    0.2180   16.8750   68.0400 C   0  0  0  0  0  0  0  0  0  0  0  0
    0.2800   10.3210   68.5740 N   0  0  0  0  0  0  0  0  0  0  0  0
    0.2550    9.5060   69.6430 C   0  0  0  0  0  0  0  0  0  0  0  0
   -0.1430    9.9710   70.9100 C   0  0  0  0  0  0  0  0  0  0  0  0
   -0.5120   11.3050   71.0950 C   0  0  0  0  0  0  0  0  0  0  0  0
   -0.1440    9.0250   72.0730 C   0  0  0  0  0  0  0  0  0  0  0  0
   -0.8100   13.5730   69.8420 C   0  0  0  0  0  0  0  0  0  0  0  0
   -0.2900   13.8890   68.4820 N   0  0  0  0  0  0  0  0  0  0  0  0
   -0.0980   12.6630   67.6580 C   0  0  0  0  0  0  0  0  0  0  0  0
   -0.0550    9.4930   73.2000 O   0  0  0  0  0  0  0  0  0  0  0  0
   -0.2000    7.7000   71.8200 N   0  0  0  0  0  0  0  0  0  0  0  0
    1.5640    6.1840   74.6290 N   0  0  0  0  0  0  0  0  0  0  0  0
    5.5670    6.1130   74.8870 S   0  0  0  0  0  0  0  0  0  0  0  0
    5.4900    5.1100   75.9360 O   0  0  0  0  0  0  0  0  0  0  0  0
    6.4740    5.8500   73.7870 O   0  0  0  0  0  0  0  0  0  0  0  0
    0.2200   18.3960   68.3520 C   0  0  0  0  0  0  0  0  0  0  0  0
   -0.9750   19.0300   67.5870 C   0  0  0  0  0  0  0  0  0  0  0  0
   -2.3060   18.4990   68.1740 C   0  0  0  0  0  0  0  0  0  0  0  0
   -2.3970   16.9880   67.8780 C   0  0  0  0  0  0  0  0  0  0  0  0
   -0.9810   20.5690   67.6400 C   0  0  0  0  0  0  0  0  0  0  0  0
    0.2690   21.0670   67.4990 F   0  0  0  0  0  0  0  0  0  0  0  0
   -1.7380   21.0370   66.6140 F   0  0  0  0  0  0  0  0  0  0  0  0
   -1.4910   20.9640   68.8370 F   0  0  0  0  0  0  0  0  0  0  0  0
    1.5999   11.6232   66.8812 H   0  0  0  0  0  0  0  0  0  0  0  0
    1.1889   14.3670   65.5887 H   0  0  0  0  0  0  0  0  0  0  0  0
    2.1820   12.9934   64.9939 H   0  0  0  0  0  0  0  0  0  0  0  0
    0.3897   12.8723   64.9939 H   0  0  0  0  0  0  0  0  0  0  0  0
    2.1511   13.2820   68.8882 H   0  0  0  0  0  0  0  0  0  0  0  0
    3.3671   13.0444   67.5876 H   0  0  0  0  0  0  0  0  0  0  0  0
    2.3263   14.5085   67.5876 H   0  0  0  0  0  0  0  0  0  0  0  0
   -0.7661    7.1302   73.7593 H   0  0  0  0  0  0  0  0  0  0  0  0
   -0.5610    5.7813   72.6075 H   0  0  0  0  0  0  0  0  0  0  0  0
    3.0074    5.6704   76.0934 H   0  0  0  0  0  0  0  0  0  0  0  0
    4.5359    7.0002   72.2692 H   0  0  0  0  0  0  0  0  0  0  0  0
    2.1684    7.2660   71.4803 H   0  0  0  0  0  0  0  0  0  0  0  0
    6.9043    7.6550   76.1545 H   0  0  0  0  0  0  0  0  0  0  0  0
    5.1189    7.9273   76.3744 H   0  0  0  0  0  0  0  0  0  0  0  0
    5.9872    9.8339   75.1628 H   0  0  0  0  0  0  0  0  0  0  0  0
    6.8547    8.7761   73.9987 H   0  0  0  0  0  0  0  0  0  0  0  0
    5.0592    8.8288   73.9987 H   0  0  0  0  0  0  0  0  0  0  0  0
   -2.2622   14.3990   67.9147 H   0  0  0  0  0  0  0  0  0  0  0  0
   -0.9841   14.8286   66.7220 H   0  0  0  0  0  0  0  0  0  0  0  0
   -1.1810   16.2033   69.4907 H   0  0  0  0  0  0  0  0  0  0  0  0
    0.4192   16.7314   66.9681 H   0  0  0  0  0  0  0  0  0  0  0  0
    0.9952   16.3991   68.6561 H   0  0  0  0  0  0  0  0  0  0  0  0
    0.5519    8.4535   69.5246 H   0  0  0  0  0  0  0  0  0  0  0  0
   -0.8163   11.6929   72.0783 H   0  0  0  0  0  0  0  0  0  0  0  0
   -0.3016   14.1693   70.6140 H   0  0  0  0  0  0  0  0  0  0  0  0
   -1.8789   13.7968   69.9739 H   0  0  0  0  0  0  0  0  0  0  0  0
   -0.8476   12.5343   66.8633 H   0  0  0  0  0  0  0  0  0  0  0  0
   -0.2721    7.3608   70.8501 H   0  0  0  0  0  0  0  0  0  0  0  0
    1.1645   18.8476   68.0144 H   0  0  0  0  0  0  0  0  0  0  0  0
    0.1244   18.5702   69.4339 H   0  0  0  0  0  0  0  0  0  0  0  0
   -0.8649   18.7404   66.5315 H   0  0  0  0  0  0  0  0  0  0  0  0
   -2.3265   18.6670   69.2609 H   0  0  0  0  0  0  0  0  0  0  0  0
   -3.1578   19.0263   67.7196 H   0  0  0  0  0  0  0  0  0  0  0  0
   -3.2946   16.5849   68.3697 H   0  0  0  0  0  0  0  0  0  0  0  0
   -2.4453   16.8618   66.7863 H   0  0  0  0  0  0  0  0  0  0  0  0
  4  3  1  0
 37 35  1  0
  3 24  1  0
  3  5  1  0
 36 35  1  0
 32 35  1  0
 32 33  1  0
 32 31  1  0
 35 38  1  0
 24 23  1  0
 24  2  1  0
 14 15  1  0
 14 23  1  0
 34 33  1  0
 34 15  1  0
 16 31  1  0
 16 15  1  0
 23 22  1  0
 17  2  2  0
 17 18  1  0
  2  1  1  0
 18 19  2  0
 22  1  1  0
  1 20  2  0
 19 20  1  0
 19 21  1  0
 26 21  1  0
 26  6  1  0
 21 25  2  0
 11 10  2  0
 11  7  1  0
  6  7  1  0
 10  9  1  0
  7 27  2  0
 30 28  2  0
  9 28  1  0
  9  8  2  0
 27  8  1  0
 13 12  1  0
 28 12  1  0
 28 29  2  0
  3 39  1  0
  4 40  1  0
  4 41  1  0
  4 42  1  0
  5 43  1  0
  5 44  1  0
  5 45  1  0
  6 46  1  0
  6 47  1  0
  8 48  1  0
 10 49  1  0
 11 50  1  0
 12 51  1  0
 12 52  1  0
 13 53  1  0
 13 54  1  0
 13 55  1  0
 14 56  1  0
 14 57  1  0
 15 58  1  0
 16 59  1  0
 16 60  1  0
 18 61  1  0
 20 62  1  0
 22 63  1  0
 22 64  1  0
 24 65  1  0
 26 66  1  0
 31 67  1  0
 31 68  1  0
 32 69  1  0
 33 70  1  0
 33 71  1  0
 34 72  1  0
 34 73  1  0
A    1
C1
A    2
C2
A    3
C11
A    4
C12
A    5
C13
A    6
C16
A    7
C17
A    8
C19
A    9
C20
A   10
C21
A   11
C22
A   12
C24
A   13
C25
A   14
C28
A   15
C29
A   16
C30
A   17
N3
A   18
C4
A   19
C5
A   20
C6
A   21
C7
A   22
C8
A   23
N9
A   24
C10
A   25
O14
A   26
N15
A   27
N18
A   28
S23
A   29
O26
A   30
O27
A   31
C31
A   32
C32
A   33
C33
A   34
C34
A   35
C35
A   36
F36
A   37
F37
A   38
F38
M  END
