5NI5_8YB_A_601
     RDKit          3D

 56 59  0  0  0  0  0  0  0  0999 V2000
  -24.3630   -0.8000  -16.8770 C   0  0  0  0  0  0  0  0  0  0  0  0
  -24.2820   -2.2740  -16.5480 C   0  0  0  0  0  0  0  0  0  0  0  0
  -26.7360   -3.0040  -17.3010 O   0  0  0  0  0  0  0  0  0  0  0  0
  -25.6250   -4.1720  -15.3800 O   0  0  0  0  0  0  0  0  0  0  0  0
  -26.0750   -1.6940  -13.7240 C   0  0  0  0  0  0  0  0  0  0  0  0
  -26.6620   -0.8420  -12.8100 C   0  0  0  0  0  0  0  0  0  0  0  0
  -27.7970   -0.1600  -13.1670 C   0  0  0  0  0  0  0  0  0  0  0  0
  -28.3090   -0.2460  -14.4470 C   0  0  0  0  0  0  0  0  0  0  0  0
  -27.6940   -1.0650  -15.3670 C   0  0  0  0  0  0  0  0  0  0  0  0
  -28.4270    0.7140  -12.1790 C   0  0  0  0  0  0  0  0  0  0  0  0
  -27.9940    2.0850  -12.5220 C   0  0  0  0  0  0  0  0  0  0  0  0
  -28.6380    4.0040  -13.8220 C   0  0  0  0  0  0  0  0  0  0  0  0
  -27.7410    6.1270  -14.4260 C   0  0  0  0  0  0  0  0  0  0  0  0
  -26.9020    7.2500  -14.4560 C   0  0  0  0  0  0  0  0  0  0  0  0
  -26.0740    6.5850  -16.6020 C   0  0  0  0  0  0  0  0  0  0  0  0
  -25.9210    9.2360  -17.4350 C   0  0  0  0  0  0  0  0  0  0  0  0
  -29.3810    6.4390  -16.2740 C   0  0  0  0  0  0  0  0  0  0  0  0
  -29.5690    7.8050  -16.3260 C   0  0  0  0  0  0  0  0  0  0  0  0
  -30.0300    8.3960  -17.4810 C   0  0  0  0  0  0  0  0  0  0  0  0
  -30.3290    7.6090  -18.5750 C   0  0  0  0  0  0  0  0  0  0  0  0
  -30.1840    6.2360  -18.5120 C   0  0  0  0  0  0  0  0  0  0  0  0
  -29.6950    5.6620  -17.3630 C   0  0  0  0  0  0  0  0  0  0  0  0
  -25.8750   -2.9550  -16.1330 S   0  0  0  0  0  0  0  0  0  0  0  0
  -26.6010   -1.8060  -14.9860 C   0  0  0  0  0  0  0  0  0  0  0  0
  -26.9370    2.4660  -12.1020 O   0  0  0  0  0  0  0  0  0  0  0  0
  -28.9130    2.7810  -13.2570 N   0  0  0  0  0  0  0  0  0  0  0  0
  -29.3430    4.5150  -14.7970 N   0  0  0  0  0  0  0  0  0  0  0  0
  -28.8380    5.7320  -15.1540 C   0  0  0  0  0  0  0  0  0  0  0  0
  -27.3300    4.9630  -13.2550 S   0  0  0  0  0  0  0  0  0  0  0  0
  -26.4840    7.7840  -13.4540 O   0  0  0  0  0  0  0  0  0  0  0  0
  -26.4330    7.6300  -15.7720 C   0  0  0  0  0  0  0  0  0  0  0  0
  -25.6430    6.8710  -17.8670 C   0  0  0  0  0  0  0  0  0  0  0  0
  -25.5640    8.1910  -18.2630 C   0  0  0  0  0  0  0  0  0  0  0  0
  -26.3740    8.9590  -16.1640 C   0  0  0  0  0  0  0  0  0  0  0  0
  -26.8130   10.2930  -15.1440 Cl  0  0  0  0  0  0  0  0  0  0  0  0
  -30.6010    5.1650  -19.8130 Cl  0  0  0  0  0  0  0  0  0  0  0  0
  -24.3950   -0.2174  -15.9445 H   0  0  0  0  0  0  0  0  0  0  0  0
  -23.4797   -0.5060  -17.4629 H   0  0  0  0  0  0  0  0  0  0  0  0
  -25.2732   -0.6046  -17.4629 H   0  0  0  0  0  0  0  0  0  0  0  0
  -23.8829   -2.8111  -17.4211 H   0  0  0  0  0  0  0  0  0  0  0  0
  -23.6248   -2.3909  -15.6737 H   0  0  0  0  0  0  0  0  0  0  0  0
  -25.1887   -2.2810  -13.4413 H   0  0  0  0  0  0  0  0  0  0  0  0
  -26.2252   -0.7119  -11.8088 H   0  0  0  0  0  0  0  0  0  0  0  0
  -29.1999    0.3345  -14.7287 H   0  0  0  0  0  0  0  0  0  0  0  0
  -28.0739   -1.1257  -16.3975 H   0  0  0  0  0  0  0  0  0  0  0  0
  -29.5224    0.6320  -12.2378 H   0  0  0  0  0  0  0  0  0  0  0  0
  -28.1370    0.4419  -11.1534 H   0  0  0  0  0  0  0  0  0  0  0  0
  -26.1339    5.5440  -16.2516 H   0  0  0  0  0  0  0  0  0  0  0  0
  -25.8448   10.2759  -17.7854 H   0  0  0  0  0  0  0  0  0  0  0  0
  -29.3501    8.4231  -15.4428 H   0  0  0  0  0  0  0  0  0  0  0  0
  -30.1591    9.4872  -17.5316 H   0  0  0  0  0  0  0  0  0  0  0  0
  -30.6854    8.0782  -19.5039 H   0  0  0  0  0  0  0  0  0  0  0  0
  -29.5539    4.5722  -17.3147 H   0  0  0  0  0  0  0  0  0  0  0  0
  -29.8489    2.3728  -13.3929 H   0  0  0  0  0  0  0  0  0  0  0  0
  -25.3636    6.0624  -18.5584 H   0  0  0  0  0  0  0  0  0  0  0  0
  -25.2029    8.4187  -19.2768 H   0  0  0  0  0  0  0  0  0  0  0  0
 36 21  1  0
 20 21  2  0
 20 19  1  0
 21 22  1  0
 33 32  1  0
 33 16  2  0
 32 15  2  0
 19 18  2  0
 16 34  1  0
 22 17  2  0
  3 23  2  0
  1  2  1  0
 15 31  1  0
  2 23  1  0
 18 17  1  0
 17 28  1  0
 34 31  2  0
 34 35  1  0
 23  4  2  0
 23 24  1  0
 31 14  1  0
  9 24  1  0
  9  8  2  0
 28 27  1  0
 28 13  2  0
 24  5  2  0
 27 12  2  0
 14 13  1  0
 14 30  2  0
  8  7  1  0
 13 29  1  0
 12 26  1  0
 12 29  1  0
  5  6  1  0
 26 11  1  0
  7  6  2  0
  7 10  1  0
 11 10  1  0
 11 25  2  0
  1 37  1  0
  1 38  1  0
  1 39  1  0
  2 40  1  0
  2 41  1  0
  5 42  1  0
  6 43  1  0
  8 44  1  0
  9 45  1  0
 10 46  1  0
 10 47  1  0
 15 48  1  0
 16 49  1  0
 18 50  1  0
 19 51  1  0
 20 52  1  0
 22 53  1  0
 26 54  1  0
 32 55  1  0
 33 56  1  0
A    1
C1
A    2
C2
A    3
O4
A    4
O5
A    5
C7
A    6
C8
A    7
C9
A    8
C10
A    9
C11
A   10
C12
A   11
C13
A   12
C16
A   13
C19
A   14
C21
A   15
C24
A   16
C27
A   17
C30
A   18
C31
A   19
C32
A   20
C33
A   21
C34
A   22
C35
A   23
S3
A   24
C6
A   25
O14
A   26
N15
A   27
N17
A   28
C18
A   29
S20
A   30
O22
A   31
C23
A   32
C25
A   33
C26
A   34
C28
A   35
CL2
A   36
CL3
M  END
