1BH3_C8E_A_290
     RDKit          3D

 55 54  0  0  0  0  0  0  0  0999 V2000
    4.3780   59.7030   44.5800 C   0  0  0  0  0  0  0  0  0  0  0  0
    3.3970   58.9120   43.8710 C   0  0  0  0  0  0  0  0  0  0  0  0
    2.1130   58.8220   44.5220 C   0  0  0  0  0  0  0  0  0  0  0  0
    2.1100   57.6410   45.4010 C   0  0  0  0  0  0  0  0  0  0  0  0
    1.8790   58.2110   46.7570 C   0  0  0  0  0  0  0  0  0  0  0  0
    0.8630   57.5080   47.4260 C   0  0  0  0  0  0  0  0  0  0  0  0
    1.2310   57.7640   48.7950 C   0  0  0  0  0  0  0  0  0  0  0  0
    0.1730   57.2820   49.6940 C   0  0  0  0  0  0  0  0  0  0  0  0
    0.5230   56.8640   51.0090 O   0  0  0  0  0  0  0  0  0  0  0  0
    0.8670   57.8350   51.9550 C   0  0  0  0  0  0  0  0  0  0  0  0
    0.8850   57.1820   53.3190 C   0  0  0  0  0  0  0  0  0  0  0  0
   -0.3960   56.5290   53.6320 O   0  0  0  0  0  0  0  0  0  0  0  0
   -0.4710   55.0600   53.4310 C   0  0  0  0  0  0  0  0  0  0  0  0
   -1.3610   54.4220   52.3280 C   0  0  0  0  0  0  0  0  0  0  0  0
   -2.2450   53.2480   52.3770 O   0  0  0  0  0  0  0  0  0  0  0  0
   -1.8770   52.2300   51.4480 C   0  0  0  0  0  0  0  0  0  0  0  0
   -1.8510   52.5360   49.9380 C   0  0  0  0  0  0  0  0  0  0  0  0
   -1.5390   51.6590   48.8890 O   0  0  0  0  0  0  0  0  0  0  0  0
   -2.2640   50.4470   48.6330 C   0  0  0  0  0  0  0  0  0  0  0  0
   -3.2380   50.2890   47.3460 C   0  0  0  0  0  0  0  0  0  0  0  0
   -4.5230   49.8120   47.7170 O   0  0  0  0  0  0  0  0  0  0  0  0
    4.2309   59.5844   45.6636 H   0  0  0  0  0  0  0  0  0  0  0  0
    5.3885   59.3640   44.3079 H   0  0  0  0  0  0  0  0  0  0  0  0
    4.2609   60.7624   44.3079 H   0  0  0  0  0  0  0  0  0  0  0  0
    3.2473   59.3608   42.8779 H   0  0  0  0  0  0  0  0  0  0  0  0
    3.7960   57.8879   43.8264 H   0  0  0  0  0  0  0  0  0  0  0  0
    1.9369   59.7285   45.1197 H   0  0  0  0  0  0  0  0  0  0  0  0
    1.3169   58.7298   43.7685 H   0  0  0  0  0  0  0  0  0  0  0  0
    1.3020   56.9479   45.1240 H   0  0  0  0  0  0  0  0  0  0  0  0
    3.0411   57.0589   45.3362 H   0  0  0  0  0  0  0  0  0  0  0  0
    2.8091   58.1430   47.3403 H   0  0  0  0  0  0  0  0  0  0  0  0
    1.5704   59.2615   46.6506 H   0  0  0  0  0  0  0  0  0  0  0  0
   -0.1333   57.9104   47.1904 H   0  0  0  0  0  0  0  0  0  0  0  0
    0.7887   56.4430   47.1608 H   0  0  0  0  0  0  0  0  0  0  0  0
    2.1712   57.2410   49.0242 H   0  0  0  0  0  0  0  0  0  0  0  0
    1.3641   58.8464   48.9387 H   0  0  0  0  0  0  0  0  0  0  0  0
   -0.5576   58.0976   49.7986 H   0  0  0  0  0  0  0  0  0  0  0  0
   -0.1850   56.3610   49.2106 H   0  0  0  0  0  0  0  0  0  0  0  0
    1.8622   58.2430   51.7245 H   0  0  0  0  0  0  0  0  0  0  0  0
    0.1366   58.6573   51.9376 H   0  0  0  0  0  0  0  0  0  0  0  0
    1.6840   56.4263   53.3409 H   0  0  0  0  0  0  0  0  0  0  0  0
    1.0601   57.9664   54.0700 H   0  0  0  0  0  0  0  0  0  0  0  0
    0.5569   54.7244   53.2290 H   0  0  0  0  0  0  0  0  0  0  0  0
   -0.9721   54.7271   54.3519 H   0  0  0  0  0  0  0  0  0  0  0  0
   -2.0239   55.2416   52.0136 H   0  0  0  0  0  0  0  0  0  0  0  0
   -0.5511   53.9638   51.7414 H   0  0  0  0  0  0  0  0  0  0  0  0
   -0.8639   51.9011   51.7226 H   0  0  0  0  0  0  0  0  0  0  0  0
   -2.6908   51.4960   51.5426 H   0  0  0  0  0  0  0  0  0  0  0  0
   -2.8644   52.8970   49.7085 H   0  0  0  0  0  0  0  0  0  0  0  0
   -0.9470   53.1621   49.9086 H   0  0  0  0  0  0  0  0  0  0  0  0
   -1.5117   49.6487   48.5508 H   0  0  0  0  0  0  0  0  0  0  0  0
   -2.9776   50.4212   49.4697 H   0  0  0  0  0  0  0  0  0  0  0  0
   -3.3482   51.2694   46.8595 H   0  0  0  0  0  0  0  0  0  0  0  0
   -2.7851   49.5580   46.6601 H   0  0  0  0  0  0  0  0  0  0  0  0
   -4.5930   49.7860   48.7042 H   0  0  0  0  0  0  0  0  0  0  0  0
  1  2  1  0
  2  3  1  0
  3  4  1  0
  4  5  1  0
  5  6  1  0
  6  7  1  0
  7  8  1  0
  8  9  1  0
  9 10  1  0
 10 11  1  0
 11 12  1  0
 12 13  1  0
 13 14  1  0
 14 15  1  0
 15 16  1  0
 16 17  1  0
 17 18  1  0
 18 19  1  0
 19 20  1  0
 20 21  1  0
  1 22  1  0
  1 23  1  0
  1 24  1  0
  2 25  1  0
  2 26  1  0
  3 27  1  0
  3 28  1  0
  4 29  1  0
  4 30  1  0
  5 31  1  0
  5 32  1  0
  6 33  1  0
  6 34  1  0
  7 35  1  0
  7 36  1  0
  8 37  1  0
  8 38  1  0
 10 39  1  0
 10 40  1  0
 11 41  1  0
 11 42  1  0
 13 43  1  0
 13 44  1  0
 14 45  1  0
 14 46  1  0
 16 47  1  0
 16 48  1  0
 17 49  1  0
 17 50  1  0
 19 51  1  0
 19 52  1  0
 20 53  1  0
 20 54  1  0
 21 55  1  0
A    1
C1
A    2
C2
A    3
C3
A    4
C4
A    5
C5
A    6
C6
A    7
C7
A    8
C8
A    9
O9
A   10
C10
A   11
C11
A   12
O12
A   13
C13
A   14
C14
A   15
O15
A   16
C16
A   17
C17
A   18
O18
A   19
C19
A   20
C20
A   21
O21
M  END
