5NZO_9EZ_B_301
     RDKit          3D

 24 25  0  0  0  0  0  0  0  0999 V2000
  -25.7480   14.5660    6.4860 C   0  0  0  0  0  0  0  0  0  0  0  0
  -26.8910   14.3110    5.7450 C   0  0  0  0  0  0  0  0  0  0  0  0
  -27.2050   12.9930    5.4240 C   0  0  0  0  0  0  0  0  0  0  0  0
  -27.7440   15.3930    5.2480 C   0  0  0  0  0  0  0  0  0  0  0  0
  -28.6120   15.3710    4.1540 C   0  0  0  0  0  0  0  0  0  0  0  0
  -29.1770   16.6090    4.0850 C   0  0  0  0  0  0  0  0  0  0  0  0
  -28.9230   18.6990    5.4940 C   0  0  0  0  0  0  0  0  0  0  0  0
  -28.6480   17.3350    5.1040 N   0  0  0  0  0  0  0  0  0  0  0  0
  -27.7630   16.5990    5.8190 N   0  0  0  0  0  0  0  0  0  0  0  0
  -24.9560   13.5190    6.9240 C   0  0  0  0  0  0  0  0  0  0  0  0
  -30.0970   17.0970    3.1990 N   0  0  0  0  0  0  0  0  0  0  0  0
  -26.4030   11.9550    5.8580 C   0  0  0  0  0  0  0  0  0  0  0  0
  -25.2670   12.2160    6.5870 C   0  0  0  0  0  0  0  0  0  0  0  0
  -25.4697   15.6027    6.7265 H   0  0  0  0  0  0  0  0  0  0  0  0
  -28.0986   12.7765    4.8201 H   0  0  0  0  0  0  0  0  0  0  0  0
  -28.8020   14.5219    3.4810 H   0  0  0  0  0  0  0  0  0  0  0  0
  -28.9375   18.7707    6.5916 H   0  0  0  0  0  0  0  0  0  0  0  0
  -28.1400   19.3598    5.0937 H   0  0  0  0  0  0  0  0  0  0  0  0
  -29.9009   19.0048    5.0937 H   0  0  0  0  0  0  0  0  0  0  0  0
  -24.0721   13.7260    7.5452 H   0  0  0  0  0  0  0  0  0  0  0  0
  -30.9541   17.5517    3.5447 H   0  0  0  0  0  0  0  0  0  0  0  0
  -29.9329   17.0100    2.1859 H   0  0  0  0  0  0  0  0  0  0  0  0
  -26.6744   10.9161    5.6194 H   0  0  0  0  0  0  0  0  0  0  0  0
  -24.6093   11.3918    6.9002 H   0  0  0  0  0  0  0  0  0  0  0  0
 10 13  1  0
 10  1  2  0
 13 12  2  0
  1  2  1  0
 12  3  1  0
  2  3  2  0
  2  4  1  0
  9  4  2  0
  9  8  1  0
  4  5  1  0
  7  8  1  0
  8  6  1  0
  5  6  2  0
  6 11  1  0
  1 14  1  0
  3 15  1  0
  5 16  1  0
  7 17  1  0
  7 18  1  0
  7 19  1  0
 10 20  1  0
 11 21  1  0
 11 22  1  0
 12 23  1  0
 13 24  1  0
A    1
C4
A    2
C5
A    3
C6
A    4
C7
A    5
C8
A    6
C9
A    7
C10
A    8
N1
A    9
N2
A   10
C3
A   11
N3
A   12
C1
A   13
C2
M  END
