5O52_9LE_A_902
     RDKit          3D

 47 50  0  0  0  0  0  0  0  0999 V2000
   33.3840   18.7490   27.2620 O   0  0  0  0  0  0  0  0  0  0  0  0
   32.3330   19.5230   27.8410 C   0  0  0  0  0  0  0  0  0  0  0  0
   32.4670   20.9990   27.5220 C   0  0  0  0  0  0  0  0  0  0  0  0
   32.5980   21.2350   26.0040 C   0  0  0  0  0  0  0  0  0  0  0  0
   31.4160   20.8040   25.3280 O   0  0  0  0  0  0  0  0  0  0  0  0
   32.8340   22.6990   25.6930 C   0  0  0  0  0  0  0  0  0  0  0  0
   33.1310   22.8210   24.2930 O   0  0  0  0  0  0  0  0  0  0  0  0
   33.5980   21.5440   28.2090 O   0  0  0  0  0  0  0  0  0  0  0  0
   33.7070   22.9630   28.0480 C   0  0  0  0  0  0  0  0  0  0  0  0
   33.9670   23.2630   26.5610 C   0  0  0  0  0  0  0  0  0  0  0  0
   34.1140   24.7150   26.3540 N   0  0  0  0  0  0  0  0  0  0  0  0
   34.8270   23.4100   28.9010 C   0  0  0  0  0  0  0  0  0  0  0  0
   36.1240   23.2200   28.6260 N   0  0  0  0  0  0  0  0  0  0  0  0
   36.8660   23.7320   29.6300 C   0  0  0  0  0  0  0  0  0  0  0  0
   35.9780   24.2740   30.5430 C   0  0  0  0  0  0  0  0  0  0  0  0
   34.7210   24.0470   30.0890 N   0  0  0  0  0  0  0  0  0  0  0  0
   36.3380   24.9020   31.8380 C   0  0  0  0  0  0  0  0  0  0  0  0
   35.3570   25.0100   32.8340 C   0  0  0  0  0  0  0  0  0  0  0  0
   35.6800   25.5600   34.0680 C   0  0  0  0  0  0  0  0  0  0  0  0
   36.9830   25.9720   34.3270 C   0  0  0  0  0  0  0  0  0  0  0  0
   37.3040   26.5120   35.5740 C   0  0  0  0  0  0  0  0  0  0  0  0
   38.6160   26.9320   35.8290 C   0  0  0  0  0  0  0  0  0  0  0  0
   39.5990   26.8220   34.8360 C   0  0  0  0  0  0  0  0  0  0  0  0
   39.2760   26.2730   33.5900 C   0  0  0  0  0  0  0  0  0  0  0  0
   37.9660   25.8580   33.3350 C   0  0  0  0  0  0  0  0  0  0  0  0
   37.6450   25.3090   32.0980 C   0  0  0  0  0  0  0  0  0  0  0  0
   33.9316   18.3457   27.9814 H   0  0  0  0  0  0  0  0  0  0  0  0
   31.3703   19.1619   27.4500 H   0  0  0  0  0  0  0  0  0  0  0  0
   32.3901   19.4068   28.9334 H   0  0  0  0  0  0  0  0  0  0  0  0
   31.5541   21.5091   27.8632 H   0  0  0  0  0  0  0  0  0  0  0  0
   33.4622   20.6510   25.6546 H   0  0  0  0  0  0  0  0  0  0  0  0
   30.7278   20.5531   25.9940 H   0  0  0  0  0  0  0  0  0  0  0  0
   31.9330   23.2855   25.9257 H   0  0  0  0  0  0  0  0  0  0  0  0
   34.0408   23.1947   24.1800 H   0  0  0  0  0  0  0  0  0  0  0  0
   32.7907   23.4940   28.3454 H   0  0  0  0  0  0  0  0  0  0  0  0
   34.9042   22.7725   26.2591 H   0  0  0  0  0  0  0  0  0  0  0  0
   34.1620   25.1889   27.2673 H   0  0  0  0  0  0  0  0  0  0  0  0
   34.9781   24.9007   25.8250 H   0  0  0  0  0  0  0  0  0  0  0  0
   36.4952   22.7576   27.7838 H   0  0  0  0  0  0  0  0  0  0  0  0
   37.9632   23.7208   29.7078 H   0  0  0  0  0  0  0  0  0  0  0  0
   34.3328   24.6596   32.6384 H   0  0  0  0  0  0  0  0  0  0  0  0
   34.9049   25.6698   34.8408 H   0  0  0  0  0  0  0  0  0  0  0  0
   36.5315   26.6071   36.3513 H   0  0  0  0  0  0  0  0  0  0  0  0
   38.8758   27.3499   36.8128 H   0  0  0  0  0  0  0  0  0  0  0  0
   40.6241   27.1671   35.0361 H   0  0  0  0  0  0  0  0  0  0  0  0
   40.0495   26.1686   32.8149 H   0  0  0  0  0  0  0  0  0  0  0  0
   38.4212   25.1964   31.3267 H   0  0  0  0  0  0  0  0  0  0  0  0
  7  6  1  0
  5  4  1  0
  6  4  1  0
  6 10  1  0
  4  3  1  0
 11 10  1  0
 10  9  1  0
  1  2  1  0
  3  2  1  0
  3  8  1  0
  9  8  1  0
  9 12  1  0
 13 12  1  0
 13 14  1  0
 12 16  2  0
 14 15  2  0
 16 15  1  0
 15 17  1  0
 17 26  1  0
 17 18  2  0
 26 25  2  0
 18 19  1  0
 25 24  1  0
 25 20  1  0
 24 23  2  0
 19 20  2  0
 20 21  1  0
 23 22  1  0
 21 22  2  0
  1 27  1  0
  2 28  1  0
  2 29  1  0
  3 30  1  0
  4 31  1  0
  5 32  1  0
  6 33  1  0
  7 34  1  0
  9 35  1  0
 10 36  1  0
 11 37  1  0
 11 38  1  0
 13 39  1  0
 14 40  1  0
 18 41  1  0
 19 42  1  0
 21 43  1  0
 22 44  1  0
 23 45  1  0
 24 46  1  0
 26 47  1  0
A    1
O6'
A    2
C6'
A    3
C5'
A    4
C4'
A    5
O4'
A    6
C3'
A    7
O3'
A    8
O5'
A    9
C1'
A   10
C2'
A   11
N2'
A   12
C1
A   13
N2
A   14
C3
A   15
C4
A   16
N5
A   17
C6
A   18
C11
A   19
C10
A   20
C9
A   21
C15
A   22
C14
A   23
C13
A   24
C12
A   25
C8
A   26
C7
M  END
