5O7A_9N5_B_504
     RDKit          3D

 47 48  0  0  0  0  0  0  0  0999 V2000
   17.3410   64.2220   35.1950 C   0  0  0  0  0  0  0  0  0  0  0  0
   18.4430   63.7380   34.4990 C   0  0  0  0  0  0  0  0  0  0  0  0
   19.3490   62.9330   35.1560 C   0  0  0  0  0  0  0  0  0  0  0  0
   18.1180   63.0860   37.1670 C   0  0  0  0  0  0  0  0  0  0  0  0
   17.2010   63.8820   36.5340 C   0  0  0  0  0  0  0  0  0  0  0  0
   17.9690   62.7480   38.5030 C   0  0  0  0  0  0  0  0  0  0  0  0
   16.8950   63.2100   39.2260 C   0  0  0  0  0  0  0  0  0  0  0  0
   15.9550   64.0170   38.5940 C   0  0  0  0  0  0  0  0  0  0  0  0
   16.1310   64.3520   37.2500 C   0  0  0  0  0  0  0  0  0  0  0  0
   18.6840   64.0180   33.1600 C   0  0  0  0  0  0  0  0  0  0  0  0
   18.8780   64.2300   32.1220 C   0  0  0  0  0  0  0  0  0  0  0  0
   13.8930   65.3020   38.8130 C   0  0  0  0  0  0  0  0  0  0  0  0
   13.4780   66.2820   39.8690 C   0  0  0  0  0  0  0  0  0  0  0  0
   11.5630   64.6930   38.6390 C   0  0  0  0  0  0  0  0  0  0  0  0
   14.0350   67.1410   42.0780 C   0  0  0  0  0  0  0  0  0  0  0  0
   15.1740   66.8670   43.0420 C   0  0  0  0  0  0  0  0  0  0  0  0
   17.1270   64.1340   43.6210 C   0  0  0  0  0  0  0  0  0  0  0  0
   12.7330   66.8350   42.8000 C   0  0  0  0  0  0  0  0  0  0  0  0
   14.0850   68.6180   41.7040 C   0  0  0  0  0  0  0  0  0  0  0  0
   19.1680   62.6320   36.4910 N   0  0  0  0  0  0  0  0  0  0  0  0
   14.2650   66.2460   40.9310 N   0  0  0  0  0  0  0  0  0  0  0  0
   15.5550   65.6070   43.2180 N   0  0  0  0  0  0  0  0  0  0  0  0
   14.9200   64.4720   39.3470 O   0  0  0  0  0  0  0  0  0  0  0  0
   12.9040   64.3260   38.5350 O   0  0  0  0  0  0  0  0  0  0  0  0
   12.5280   67.0170   39.6850 O   0  0  0  0  0  0  0  0  0  0  0  0
   16.5210   65.3540   44.0370 O   0  0  0  0  0  0  0  0  0  0  0  0
   16.5967   64.8600   34.6961 H   0  0  0  0  0  0  0  0  0  0  0  0
   20.2179   62.5297   34.6153 H   0  0  0  0  0  0  0  0  0  0  0  0
   18.7169   62.1043   38.9891 H   0  0  0  0  0  0  0  0  0  0  0  0
   16.7808   62.9456   40.2876 H   0  0  0  0  0  0  0  0  0  0  0  0
   15.3968   65.0057   36.7564 H   0  0  0  0  0  0  0  0  0  0  0  0
   19.0761   64.4465   31.0619 H   0  0  0  0  0  0  0  0  0  0  0  0
   14.1451   65.9158   37.9357 H   0  0  0  0  0  0  0  0  0  0  0  0
   11.2849   64.7691   39.7006 H   0  0  0  0  0  0  0  0  0  0  0  0
   11.4101   65.6660   38.1493 H   0  0  0  0  0  0  0  0  0  0  0  0
   10.9359   63.9334   38.1493 H   0  0  0  0  0  0  0  0  0  0  0  0
   15.6700   67.6884   43.5798 H   0  0  0  0  0  0  0  0  0  0  0  0
   17.4178   63.5487   44.5058 H   0  0  0  0  0  0  0  0  0  0  0  0
   16.4113   63.5560   43.0180 H   0  0  0  0  0  0  0  0  0  0  0  0
   18.0200   64.3551   43.0180 H   0  0  0  0  0  0  0  0  0  0  0  0
   12.8985   66.8739   43.8868 H   0  0  0  0  0  0  0  0  0  0  0  0
   11.9736   67.5791   42.5179 H   0  0  0  0  0  0  0  0  0  0  0  0
   12.3846   65.8305   42.5179 H   0  0  0  0  0  0  0  0  0  0  0  0
   14.1056   69.2275   42.6194 H   0  0  0  0  0  0  0  0  0  0  0  0
   14.9904   68.8157   41.1113 H   0  0  0  0  0  0  0  0  0  0  0  0
   13.1951   68.8765   41.1113 H   0  0  0  0  0  0  0  0  0  0  0  0
   15.0515   65.5814   40.9566 H   0  0  0  0  0  0  0  0  0  0  0  0
 11 10  3  0
 10  2  1  0
  2  3  1  0
  2  1  2  0
  3 20  2  0
  1  5  1  0
 20  4  1  0
  5  4  2  0
  5  9  1  0
  4  6  1  0
  9  8  2  0
  6  7  2  0
 24 14  1  0
 24 12  1  0
  8  7  1  0
  8 23  1  0
 12 23  1  0
 12 13  1  0
 25 13  2  0
 13 21  1  0
 21 15  1  0
 19 15  1  0
 15 18  1  0
 15 16  1  0
 16 22  2  0
 22 26  1  0
 17 26  1  0
  1 27  1  0
  3 28  1  0
  6 29  1  0
  7 30  1  0
  9 31  1  0
 11 32  1  0
 12 33  1  0
 14 34  1  0
 14 35  1  0
 14 36  1  0
 16 37  1  0
 17 38  1  0
 17 39  1  0
 17 40  1  0
 18 41  1  0
 18 42  1  0
 18 43  1  0
 19 44  1  0
 19 45  1  0
 19 46  1  0
 21 47  1  0
A    1
CAA
A    2
CAB
A    3
CAC
A    4
CAE
A    5
CAF
A    6
CAG
A    7
CAH
A    8
CAI
A    9
CAJ
A   10
CAK
A   11
CAL
A   12
CAN
A   13
CAO
A   14
CAQ
A   15
CAT
A   16
CAU
A   17
CAX
A   18
CAY
A   19
CAZ
A   20
NAD
A   21
NAS
A   22
NAV
A   23
OAM
A   24
OAP
A   25
OAR
A   26
OAW
M  END
