5O83_9NQ_A_1101
     RDKit          3D

 57 60  0  0  0  0  0  0  0  0999 V2000
    2.0210  -33.9700  -20.4930 C   0  0  0  0  0  0  0  0  0  0  0  0
    3.3770  -34.6230  -20.6640 C   0  0  0  0  0  0  0  0  0  0  0  0
    5.2260  -35.2840  -22.1600 C   0  0  0  0  0  0  0  0  0  0  0  0
   13.2350  -29.5540  -22.0220 O   0  0  0  0  0  0  0  0  0  0  0  0
    8.2750  -29.1110  -25.8770 C   0  0  0  0  0  0  0  0  0  0  0  0
    7.6400  -31.1210  -24.4340 C   0  0  0  0  0  0  0  0  0  0  0  0
    6.2360  -30.8910  -24.9430 C   0  0  0  0  0  0  0  0  0  0  0  0
    9.7260  -29.8360  -24.0270 C   0  0  0  0  0  0  0  0  0  0  0  0
   10.8820  -29.3760  -24.6540 C   0  0  0  0  0  0  0  0  0  0  0  0
   12.0940  -29.6130  -22.7410 C   0  0  0  0  0  0  0  0  0  0  0  0
   14.3950  -29.0200  -22.6580 C   0  0  0  0  0  0  0  0  0  0  0  0
   11.0000  -30.0680  -21.9890 C   0  0  0  0  0  0  0  0  0  0  0  0
    9.7980  -30.1850  -22.6780 C   0  0  0  0  0  0  0  0  0  0  0  0
   10.9830  -30.3550  -20.5120 C   0  0  0  0  0  0  0  0  0  0  0  0
   11.7080  -29.4880  -19.8240 F   0  0  0  0  0  0  0  0  0  0  0  0
    9.7650  -30.2790  -19.9840 F   0  0  0  0  0  0  0  0  0  0  0  0
   11.4550  -31.5640  -20.2220 F   0  0  0  0  0  0  0  0  0  0  0  0
   12.0570  -29.2700  -24.0190 N   0  0  0  0  0  0  0  0  0  0  0  0
    8.5540  -30.0050  -24.7460 N   0  0  0  0  0  0  0  0  0  0  0  0
    6.8510  -28.5980  -25.8250 C   0  0  0  0  0  0  0  0  0  0  0  0
    5.8720  -29.7230  -25.6330 C   0  0  0  0  0  0  0  0  0  0  0  0
    4.6520  -29.5320  -26.1600 N   0  0  0  0  0  0  0  0  0  0  0  0
    3.7720  -30.5200  -25.9770 C   0  0  0  0  0  0  0  0  0  0  0  0
    3.9530  -31.6860  -25.3510 N   0  0  0  0  0  0  0  0  0  0  0  0
    5.1940  -31.8740  -24.8450 C   0  0  0  0  0  0  0  0  0  0  0  0
    5.4600  -33.0790  -24.2770 N   0  0  0  0  0  0  0  0  0  0  0  0
    4.5220  -34.1950  -24.1400 C   0  0  0  0  0  0  0  0  0  0  0  0
    5.2260  -35.4480  -23.6690 C   0  0  0  0  0  0  0  0  0  0  0  0
    3.4090  -34.0110  -23.1130 C   0  0  0  0  0  0  0  0  0  0  0  0
    3.9370  -34.6360  -21.8960 N   0  0  0  0  0  0  0  0  0  0  0  0
    3.9460  -35.1100  -19.6980 O   0  0  0  0  0  0  0  0  0  0  0  0
    1.8490  -33.3190  -19.1570 C   0  0  0  0  0  0  0  0  0  0  0  0
    1.8997  -33.2048  -21.2738 H   0  0  0  0  0  0  0  0  0  0  0  0
    1.2622  -34.7624  -20.5726 H   0  0  0  0  0  0  0  0  0  0  0  0
    5.2877  -36.2601  -21.6567 H   0  0  0  0  0  0  0  0  0  0  0  0
    6.0848  -34.7061  -21.7878 H   0  0  0  0  0  0  0  0  0  0  0  0
    8.4245  -29.6626  -26.8169 H   0  0  0  0  0  0  0  0  0  0  0  0
    8.9593  -28.2516  -25.8214 H   0  0  0  0  0  0  0  0  0  0  0  0
    7.6011  -31.2480  -23.3421 H   0  0  0  0  0  0  0  0  0  0  0  0
    8.0306  -32.0180  -24.9368 H   0  0  0  0  0  0  0  0  0  0  0  0
   10.8278  -29.0879  -25.7142 H   0  0  0  0  0  0  0  0  0  0  0  0
   15.1131  -28.6894  -21.8931 H   0  0  0  0  0  0  0  0  0  0  0  0
   14.8587  -29.7953  -23.2856 H   0  0  0  0  0  0  0  0  0  0  0  0
   14.1076  -28.1636  -23.2856 H   0  0  0  0  0  0  0  0  0  0  0  0
    8.9014  -30.5537  -22.1582 H   0  0  0  0  0  0  0  0  0  0  0  0
    6.7547  -27.8922  -24.9868 H   0  0  0  0  0  0  0  0  0  0  0  0
    6.6258  -28.1008  -26.7801 H   0  0  0  0  0  0  0  0  0  0  0  0
    2.7689  -30.3518  -26.3958 H   0  0  0  0  0  0  0  0  0  0  0  0
    6.4111  -33.2210  -23.9079 H   0  0  0  0  0  0  0  0  0  0  0  0
    4.0945  -34.2567  -25.1517 H   0  0  0  0  0  0  0  0  0  0  0  0
    4.6734  -36.3503  -23.9699 H   0  0  0  0  0  0  0  0  0  0  0  0
    6.2330  -35.5690  -24.0948 H   0  0  0  0  0  0  0  0  0  0  0  0
    3.2045  -32.9431  -22.9462 H   0  0  0  0  0  0  0  0  0  0  0  0
    2.4575  -34.4574  -23.4377 H   0  0  0  0  0  0  0  0  0  0  0  0
    2.0434  -34.0548  -18.3628 H   0  0  0  0  0  0  0  0  0  0  0  0
    2.5569  -32.4823  -19.0629 H   0  0  0  0  0  0  0  0  0  0  0  0
    0.8202  -32.9412  -19.0629 H   0  0  0  0  0  0  0  0  0  0  0  0
 22 23  2  0
 22 21  1  0
 23 24  1  0
  5 20  1  0
  5 19  1  0
 20 21  1  0
 21  7  2  0
 24 25  2  0
  7 25  1  0
  7  6  1  0
 25 26  1  0
 19  6  1  0
 19  8  1  0
  9  8  2  0
  9 18  1  0
 26 27  1  0
 27 28  1  0
 27 29  1  0
  8 13  1  0
 18 10  2  0
 28  3  1  0
 29 30  1  0
 10  4  1  0
 10 12  1  0
 13 12  2  0
 11  4  1  0
  3 30  1  0
 12 14  1  0
 30  2  1  0
  2  1  1  0
  2 31  2  0
 14 17  1  0
 14 16  1  0
 14 15  1  0
  1 32  1  0
  1 33  1  0
  1 34  1  0
  3 35  1  0
  3 36  1  0
  5 37  1  0
  5 38  1  0
  6 39  1  0
  6 40  1  0
  9 41  1  0
 11 42  1  0
 11 43  1  0
 11 44  1  0
 13 45  1  0
 20 46  1  0
 20 47  1  0
 23 48  1  0
 26 49  1  0
 27 50  1  0
 28 51  1  0
 28 52  1  0
 29 53  1  0
 29 54  1  0
 32 55  1  0
 32 56  1  0
 32 57  1  0
A    1
C1
A    2
C2
A    3
C3
A    4
O1
A    5
C11
A    6
C12
A    7
C13
A    8
C14
A    9
C15
A   10
C16
A   11
C17
A   12
C18
A   13
C19
A   14
C20
A   15
F2
A   16
F
A   17
F1
A   18
N5
A   19
N4
A   20
C10
A   21
C9
A   22
N3
A   23
C8
A   24
N2
A   25
C7
A   26
N1
A   27
C5
A   28
C4
A   29
C6
A   30
N
A   31
O
A   32
C
M  END
