1H87_DO3_A_284
     RDKit          3D

 60 60  0  0  0  0  0  0  0  0999 V2000
    2.4320   24.9550   34.5050 N   0  0  0  0  0  0  0  0  0  0  0  0
    3.6860   25.2210   37.0460 N   0  0  0  0  0  0  0  0  0  0  0  0
    2.6530   22.5840   37.8580 N   0  0  0  0  0  0  0  0  0  0  0  0
    1.2890   22.3630   35.3240 N   0  0  0  0  0  0  0  0  0  0  0  0
    0.6360   26.5760   35.9420 O   0  0  0  0  0  0  0  0  0  0  0  0
    1.5520   25.8270   38.6620 O   0  0  0  0  0  0  0  0  0  0  0  0
   -0.0220   22.9590   38.5430 O   0  0  0  0  0  0  0  0  0  0  0  0
   -0.8330   24.0260   35.6940 O   0  0  0  0  0  0  0  0  0  0  0  0
    3.7310   25.6510   34.5380 C   0  0  0  0  0  0  0  0  0  0  0  0
    4.5250   25.3200   35.7630 C   0  0  0  0  0  0  0  0  0  0  0  0
    4.3920   24.3340   37.9650 C   0  0  0  0  0  0  0  0  0  0  0  0
    4.0240   22.8600   37.8530 C   0  0  0  0  0  0  0  0  0  0  0  0
    2.4530   21.2940   37.1950 C   0  0  0  0  0  0  0  0  0  0  0  0
    2.1380   21.2790   35.7480 C   0  0  0  0  0  0  0  0  0  0  0  0
    1.6470   22.6350   33.9070 C   0  0  0  0  0  0  0  0  0  0  0  0
    2.6470   23.7790   33.6890 C   0  0  0  0  0  0  0  0  0  0  0  0
    0.8600   26.9020   34.7400 C   0  0  0  0  0  0  0  0  0  0  0  0
    1.4510   25.8220   33.8710 C   0  0  0  0  0  0  0  0  0  0  0  0
    2.5180   26.6800   38.6820 C   0  0  0  0  0  0  0  0  0  0  0  0
    3.5360   26.5940   37.6240 C   0  0  0  0  0  0  0  0  0  0  0  0
    0.6890   22.4890   39.4750 C   0  0  0  0  0  0  0  0  0  0  0  0
    2.1820   22.5190   39.2620 C   0  0  0  0  0  0  0  0  0  0  0  0
   -1.1710   22.8330   35.1760 C   0  0  0  0  0  0  0  0  0  0  0  0
   -0.1310   21.8890   35.4710 C   0  0  0  0  0  0  0  0  0  0  0  0
   -2.4180   22.4100   35.7010 C   0  0  0  0  0  0  0  0  0  0  0  0
    0.6640   28.0010   34.2750 O   0  0  0  0  0  0  0  0  0  0  0  0
    2.6340   27.5720   39.5460 O   0  0  0  0  0  0  0  0  0  0  0  0
    0.2650   22.0280   40.5140 O   0  0  0  0  0  0  0  0  0  0  0  0
    1.0096   27.1197   36.6802 H   0  0  0  0  0  0  0  0  0  0  0  0
    1.1710   25.4906   39.5116 H   0  0  0  0  0  0  0  0  0  0  0  0
   -0.8285   23.4921   38.7563 H   0  0  0  0  0  0  0  0  0  0  0  0
   -0.8481   23.9728   36.6825 H   0  0  0  0  0  0  0  0  0  0  0  0
    4.3115   25.3577   33.6509 H   0  0  0  0  0  0  0  0  0  0  0  0
    3.5316   26.7327   34.5498 H   0  0  0  0  0  0  0  0  0  0  0  0
    5.2832   26.1041   35.9056 H   0  0  0  0  0  0  0  0  0  0  0  0
    4.9674   24.3269   35.5957 H   0  0  0  0  0  0  0  0  0  0  0  0
    5.4704   24.4314   37.7713 H   0  0  0  0  0  0  0  0  0  0  0  0
    4.0982   24.6465   38.9779 H   0  0  0  0  0  0  0  0  0  0  0  0
    4.4803   22.3304   38.7023 H   0  0  0  0  0  0  0  0  0  0  0  0
    4.3976   22.5269   36.8735 H   0  0  0  0  0  0  0  0  0  0  0  0
    3.3773   20.7134   37.3311 H   0  0  0  0  0  0  0  0  0  0  0  0
    1.5477   20.8875   37.6695 H   0  0  0  0  0  0  0  0  0  0  0  0
    1.6321   20.3308   35.5135 H   0  0  0  0  0  0  0  0  0  0  0  0
    3.0921   21.3925   35.2124 H   0  0  0  0  0  0  0  0  0  0  0  0
    2.0834   21.7177   33.4850 H   0  0  0  0  0  0  0  0  0  0  0  0
    0.7152   22.9485   33.4136 H   0  0  0  0  0  0  0  0  0  0  0  0
    2.5899   24.0832   32.6334 H   0  0  0  0  0  0  0  0  0  0  0  0
    3.6302   23.3822   33.9820 H   0  0  0  0  0  0  0  0  0  0  0  0
    1.9379   26.3096   33.0136 H   0  0  0  0  0  0  0  0  0  0  0  0
    0.6095   25.1673   33.6005 H   0  0  0  0  0  0  0  0  0  0  0  0
    4.5039   26.9007   38.0471 H   0  0  0  0  0  0  0  0  0  0  0  0
    3.2083   27.2537   36.8070 H   0  0  0  0  0  0  0  0  0  0  0  0
    2.6013   21.6072   39.7124 H   0  0  0  0  0  0  0  0  0  0  0  0
    2.5212   23.4577   39.7244 H   0  0  0  0  0  0  0  0  0  0  0  0
   -1.2806   22.9106   34.0842 H   0  0  0  0  0  0  0  0  0  0  0  0
   -0.2642   21.0289   34.7984 H   0  0  0  0  0  0  0  0  0  0  0  0
   -0.2461   21.6655   36.5419 H   0  0  0  0  0  0  0  0  0  0  0  0
   -2.3768   22.4240   36.8001 H   0  0  0  0  0  0  0  0  0  0  0  0
   -3.2109   23.0894   35.3551 H   0  0  0  0  0  0  0  0  0  0  0  0
   -2.6339   21.3884   35.3551 H   0  0  0  0  0  0  0  0  0  0  0  0
  1  9  1  0
  1 16  1  0
  1 18  1  0
  2 10  1  0
  2 11  1  0
  2 20  1  0
  3 12  1  0
  3 13  1  0
  3 22  1  0
  4 14  1  0
  4 15  1  0
  4 24  1  0
  5 17  1  0
  6 19  1  0
  7 21  1  0
  8 23  1  0
  9 10  1  0
 11 12  1  0
 13 14  1  0
 15 16  1  0
 17 18  1  0
 17 26  2  0
 19 20  1  0
 19 27  2  0
 21 22  1  0
 21 28  2  0
 23 24  1  0
 23 25  1  0
  5 29  1  0
  6 30  1  0
  7 31  1  0
  8 32  1  0
  9 33  1  0
  9 34  1  0
 10 35  1  0
 10 36  1  0
 11 37  1  0
 11 38  1  0
 12 39  1  0
 12 40  1  0
 13 41  1  0
 13 42  1  0
 14 43  1  0
 14 44  1  0
 15 45  1  0
 15 46  1  0
 16 47  1  0
 16 48  1  0
 18 49  1  0
 18 50  1  0
 20 51  1  0
 20 52  1  0
 22 53  1  0
 22 54  1  0
 23 55  1  0
 24 56  1  0
 24 57  1  0
 25 58  1  0
 25 59  1  0
 25 60  1  0
A    1
N1
A    2
N2
A    3
N3
A    4
N4
A    5
O1
A    6
O3
A    7
O5
A    8
O7
A    9
C1
A   10
C2
A   11
C3
A   12
C4
A   13
C5
A   14
C6
A   15
C7
A   16
C8
A   17
C9
A   18
C10
A   19
C11
A   20
C12
A   21
C13
A   22
C14
A   23
C15
A   24
C16
A   25
C17
A   26
O2
A   27
O4
A   28
O6
M  END
