5OFM_9TT_B_401
     RDKit          3D

 21 22  0  0  0  0  0  0  0  0999 V2000
  -27.5840   14.2440    4.4090 C   0  0  0  0  0  0  0  0  0  0  0  0
  -26.5640   13.8980    5.3060 C   0  0  0  0  0  0  0  0  0  0  0  0
  -26.0120   14.8850    6.1350 C   0  0  0  0  0  0  0  0  0  0  0  0
  -25.8820   12.6840    5.6100 C   0  0  0  0  0  0  0  0  0  0  0  0
  -24.9780   12.9540    6.5880 C   0  0  0  0  0  0  0  0  0  0  0  0
  -24.2440   14.9630    7.9140 C   0  0  0  0  0  0  0  0  0  0  0  0
  -25.0330   14.2930    6.8920 N   0  0  0  0  0  0  0  0  0  0  0  0
  -29.0500   15.9020    3.5100 N   0  0  0  0  0  0  0  0  0  0  0  0
  -28.0090   15.5480    4.3780 C   0  0  0  0  0  0  0  0  0  0  0  0
  -26.4390   16.2160    6.0960 C   0  0  0  0  0  0  0  0  0  0  0  0
  -27.4640   16.5200    5.2400 C   0  0  0  0  0  0  0  0  0  0  0  0
  -28.0324   13.4889    3.7466 H   0  0  0  0  0  0  0  0  0  0  0  0
  -26.0559   11.7056    5.1383 H   0  0  0  0  0  0  0  0  0  0  0  0
  -24.3097   12.2190    7.0603 H   0  0  0  0  0  0  0  0  0  0  0  0
  -24.6005   14.6602    8.9096 H   0  0  0  0  0  0  0  0  0  0  0  0
  -23.1861   14.6831    7.8026 H   0  0  0  0  0  0  0  0  0  0  0  0
  -24.3488   16.0523    7.8026 H   0  0  0  0  0  0  0  0  0  0  0  0
  -29.9560   16.2101    3.8910 H   0  0  0  0  0  0  0  0  0  0  0  0
  -28.9094   15.8542    2.4908 H   0  0  0  0  0  0  0  0  0  0  0  0
  -25.9712   16.9866    6.7264 H   0  0  0  0  0  0  0  0  0  0  0  0
  -27.8694   17.5425    5.2252 H   0  0  0  0  0  0  0  0  0  0  0  0
  6  7  1  0
  7  5  1  0
  7  3  1  0
  5  4  2  0
  3 10  2  0
  3  2  1  0
 10 11  1  0
  4  2  1  0
  2  1  2  0
 11  9  2  0
  1  9  1  0
  9  8  1  0
  1 12  1  0
  4 13  1  0
  5 14  1  0
  6 15  1  0
  6 16  1  0
  6 17  1  0
  8 18  1  0
  8 19  1  0
 10 20  1  0
 11 21  1  0
A    1
C4
A    2
C5
A    3
C6
A    4
C7
A    5
C8
A    6
C9
A    7
N1
A    8
N2
A    9
C3
A   10
C1
A   11
C2
M  END
