5OFV_9TZ_B_401
     RDKit          3D

 18 18  0  0  0  0  0  0  0  0999 V2000
  -25.1540   15.1600    7.6320 C   0  0  0  0  0  0  0  0  0  0  0  0
  -26.0090   15.5660    6.6100 C   0  0  0  0  0  0  0  0  0  0  0  0
  -26.3990   14.6110    5.6620 C   0  0  0  0  0  0  0  0  0  0  0  0
  -26.4200   17.0240    6.5840 C   0  0  0  0  0  0  0  0  0  0  0  0
  -27.2780   14.9390    4.4750 C   0  0  0  0  0  0  0  0  0  0  0  0
  -24.7110   13.8540    7.7370 C   0  0  0  0  0  0  0  0  0  0  0  0
  -25.9320   13.3120    5.7610 C   0  0  0  0  0  0  0  0  0  0  0  0
  -25.0970   12.9600    6.7830 C   0  0  0  0  0  0  0  0  0  0  0  0
  -24.6260   11.6780    6.8150 F   0  0  0  0  0  0  0  0  0  0  0  0
  -27.1990   16.2050    4.1030 O   0  0  0  0  0  0  0  0  0  0  0  0
  -27.9440   14.0720    3.8720 O   0  0  0  0  0  0  0  0  0  0  0  0
  -24.8219   15.8987    8.3763 H   0  0  0  0  0  0  0  0  0  0  0  0
  -26.5243   17.3940    7.6146 H   0  0  0  0  0  0  0  0  0  0  0  0
  -25.6526   17.6120    6.0592 H   0  0  0  0  0  0  0  0  0  0  0  0
  -27.3815   17.1246    6.0592 H   0  0  0  0  0  0  0  0  0  0  0  0
  -24.0629   13.5442    8.5701 H   0  0  0  0  0  0  0  0  0  0  0  0
  -26.2338   12.5617    5.0154 H   0  0  0  0  0  0  0  0  0  0  0  0
  -27.1544   16.9199    4.7864 H   0  0  0  0  0  0  0  0  0  0  0  0
  6  1  2  0
  6  8  1  0
  1  2  1  0
  9  8  1  0
  8  7  2  0
  2  4  1  0
  2  3  2  0
  7  3  1  0
  3  5  1  0
  5 11  2  0
  5 10  1  0
  1 12  1  0
  4 13  1  0
  4 14  1  0
  4 15  1  0
  6 16  1  0
  7 17  1  0
 10 18  1  0
A    1
C4
A    2
C5
A    3
C6
A    4
C7
A    5
C8
A    6
C3
A    7
C1
A    8
C2
A    9
F1
A   10
O1
A   11
O2
M  END
