3ZIU_LSS_A_1638
     RDKit          3D

 56 58  0  0  0  0  0  0  0  0999 V2000
  -30.0880   10.7550   76.4260 C   0  0  0  0  0  0  0  0  0  0  0  0
  -23.8370    4.1270   82.3270 N   0  0  0  0  0  0  0  0  0  0  0  0
  -29.7260   10.7730   77.6180 O   0  0  0  0  0  0  0  0  0  0  0  0
  -28.0570    9.4620   75.7740 S   0  0  0  0  0  0  0  0  0  0  0  0
  -25.1310    3.7830   82.2340 C   0  0  0  0  0  0  0  0  0  0  0  0
  -29.3780   10.1680   75.4440 N   0  0  0  0  0  0  0  0  0  0  0  0
  -28.5150    7.7470   81.2650 O   0  0  0  0  0  0  0  0  0  0  0  0
  -26.0120    4.4420   81.4570 N   0  0  0  0  0  0  0  0  0  0  0  0
  -30.6640    6.7320   79.8640 O   0  0  0  0  0  0  0  0  0  0  0  0
  -25.6090    5.5020   80.7230 C   0  0  0  0  0  0  0  0  0  0  0  0
  -31.4620   11.3460   74.5220 N   0  0  0  0  0  0  0  0  0  0  0  0
  -28.0010    5.9170   78.2800 O   0  0  0  0  0  0  0  0  0  0  0  0
  -24.2920    5.9140   80.7580 C   0  0  0  0  0  0  0  0  0  0  0  0
  -28.2000    8.3810   76.8580 O   0  0  0  0  0  0  0  0  0  0  0  0
  -23.3430    5.1690   81.6150 C   0  0  0  0  0  0  0  0  0  0  0  0
  -22.0260    5.5130   81.6820 N   0  0  0  0  0  0  0  0  0  0  0  0
  -33.8850   11.5790   76.4020 C   0  0  0  0  0  0  0  0  0  0  0  0
  -24.1740    6.9650   79.9170 N   0  0  0  0  0  0  0  0  0  0  0  0
  -25.4060    7.2250   79.3860 C   0  0  0  0  0  0  0  0  0  0  0  0
  -32.5790   10.7850   76.6600 C   0  0  0  0  0  0  0  0  0  0  0  0
  -26.2590    6.3060   79.8650 N   0  0  0  0  0  0  0  0  0  0  0  0
  -31.3520   11.4350   75.9720 C   0  0  0  0  0  0  0  0  0  0  0  0
  -35.0900   10.8050   76.9460 C   0  0  0  0  0  0  0  0  0  0  0  0
  -33.8280   12.9740   77.0560 C   0  0  0  0  0  0  0  0  0  0  0  0
  -27.0690   10.3210   76.3900 O   0  0  0  0  0  0  0  0  0  0  0  0
  -27.6920    6.2090   79.6130 C   0  0  0  0  0  0  0  0  0  0  0  0
  -28.3550    7.5580   79.8730 C   0  0  0  0  0  0  0  0  0  0  0  0
  -29.6490    7.4010   79.0950 C   0  0  0  0  0  0  0  0  0  0  0  0
  -29.2380    6.5280   77.9080 C   0  0  0  0  0  0  0  0  0  0  0  0
  -29.0820    7.3080   76.6060 C   0  0  0  0  0  0  0  0  0  0  0  0
  -27.5390    8.8470   74.5670 O   0  0  0  0  0  0  0  0  0  0  0  0
  -25.4886    2.9231   82.8194 H   0  0  0  0  0  0  0  0  0  0  0  0
  -29.7213   10.1930   74.4732 H   0  0  0  0  0  0  0  0  0  0  0  0
  -27.9586    7.0897   81.7534 H   0  0  0  0  0  0  0  0  0  0  0  0
  -30.4802    6.8531   80.8292 H   0  0  0  0  0  0  0  0  0  0  0  0
  -32.2393   10.7171   74.2746 H   0  0  0  0  0  0  0  0  0  0  0  0
  -31.6412   12.2828   74.1331 H   0  0  0  0  0  0  0  0  0  0  0  0
  -21.5707    5.6319   82.5982 H   0  0  0  0  0  0  0  0  0  0  0  0
  -21.4859    5.6541   80.8164 H   0  0  0  0  0  0  0  0  0  0  0  0
  -33.9919   11.7085   75.3149 H   0  0  0  0  0  0  0  0  0  0  0  0
  -25.6541    8.0407   78.6910 H   0  0  0  0  0  0  0  0  0  0  0  0
  -32.3972   10.7452   77.7441 H   0  0  0  0  0  0  0  0  0  0  0  0
  -32.7079    9.7774   76.2379 H   0  0  0  0  0  0  0  0  0  0  0  0
  -31.3205   12.4971   76.2565 H   0  0  0  0  0  0  0  0  0  0  0  0
  -35.0686   10.8188   78.0457 H   0  0  0  0  0  0  0  0  0  0  0  0
  -36.0187   11.2759   76.5914 H   0  0  0  0  0  0  0  0  0  0  0  0
  -35.0479    9.7646   76.5914 H   0  0  0  0  0  0  0  0  0  0  0  0
  -33.8324   12.8662   78.1507 H   0  0  0  0  0  0  0  0  0  0  0  0
  -32.9081   13.4889   76.7420 H   0  0  0  0  0  0  0  0  0  0  0  0
  -34.7029   13.5622   76.7420 H   0  0  0  0  0  0  0  0  0  0  0  0
  -28.0468    5.4043   80.2738 H   0  0  0  0  0  0  0  0  0  0  0  0
  -27.7987    8.4528   79.5570 H   0  0  0  0  0  0  0  0  0  0  0  0
  -30.0817    8.3721   78.8126 H   0  0  0  0  0  0  0  0  0  0  0  0
  -30.0269    5.7898   77.7016 H   0  0  0  0  0  0  0  0  0  0  0  0
  -30.0592    7.6936   76.2797 H   0  0  0  0  0  0  0  0  0  0  0  0
  -28.6863    6.6594   75.8105 H   0  0  0  0  0  0  0  0  0  0  0  0
  1  3  2  0
  1  6  1  0
  1 22  1  0
  2  5  2  0
  2 15  1  0
  4  6  1  0
  4 14  1  0
  4 25  2  0
  4 31  2  0
  5  8  1  0
  7 27  1  0
  8 10  2  0
  9 28  1  0
 10 13  1  0
 10 21  1  0
 11 22  1  0
 12 26  1  0
 12 29  1  0
 13 15  2  0
 13 18  1  0
 14 30  1  0
 15 16  1  0
 17 20  1  0
 17 23  1  0
 17 24  1  0
 18 19  2  0
 19 21  1  0
 20 22  1  0
 21 26  1  0
 26 27  1  0
 27 28  1  0
 28 29  1  0
 29 30  1  0
  5 32  1  0
  6 33  1  0
  7 34  1  0
  9 35  1  0
 11 36  1  0
 11 37  1  0
 16 38  1  0
 16 39  1  0
 17 40  1  0
 19 41  1  0
 20 42  1  0
 20 43  1  0
 22 44  1  0
 23 45  1  0
 23 46  1  0
 23 47  1  0
 24 48  1  0
 24 49  1  0
 24 50  1  0
 26 51  1  0
 27 52  1  0
 28 53  1  0
 29 54  1  0
 30 55  1  0
 30 56  1  0
A    1
C1
A    2
N1
A    3
O1
A    4
S1
A    5
C2
A    6
N2
A    7
O2
A    8
N3
A    9
O3
A   10
C4
A   11
N4
A   12
O4
A   13
C5
A   14
O5
A   15
C6
A   16
N6
A   17
C7
A   18
N7
A   19
C8
A   20
C9
A   21
N9
A   22
CA
A   23
C10
A   24
C11
A   25
O1A
A   26
C21
A   27
C22
A   28
C23
A   29
C24
A   30
C25
A   31
O2A
M  END
