5ON0_9YH_A_602
     RDKit          3D

 59 60  0  0  0  0  0  0  0  0999 V2000
    3.5680    1.2420   35.1780 C   0  0  0  0  0  0  0  0  0  0  0  0
    3.1170   -0.0910   34.8920 O   0  0  0  0  0  0  0  0  0  0  0  0
    3.8720   -0.7320   33.9530 C   0  0  0  0  0  0  0  0  0  0  0  0
    3.3920   -1.9530   33.5160 C   0  0  0  0  0  0  0  0  0  0  0  0
    2.2220   -2.3970   34.0440 O   0  0  0  0  0  0  0  0  0  0  0  0
    5.0650   -0.2400   33.4410 C   0  0  0  0  0  0  0  0  0  0  0  0
    5.7490   -0.9920   32.4900 C   0  0  0  0  0  0  0  0  0  0  0  0
    5.2520   -2.2210   32.0520 C   0  0  0  0  0  0  0  0  0  0  0  0
    4.0610   -2.7170   32.5670 C   0  0  0  0  0  0  0  0  0  0  0  0
    3.5670   -3.9390   32.1200 C   0  0  0  0  0  0  0  0  0  0  0  0
    3.3860   -4.9060   33.2070 N   0  0  0  0  0  0  0  0  0  0  0  0
    4.6860   -5.1650   33.8490 C   0  0  0  0  0  0  0  0  0  0  0  0
    4.4820   -5.4190   35.3480 C   0  0  0  0  0  0  0  0  0  0  0  0
    5.4180   -5.9710   35.9650 O   0  0  0  0  0  0  0  0  0  0  0  0
    3.3990   -5.0380   35.8450 O   0  0  0  0  0  0  0  0  0  0  0  0
    2.8750   -6.1520   32.6080 C   0  0  0  0  0  0  0  0  0  0  0  0
    2.1550   -7.0340   33.6390 C   0  0  0  0  0  0  0  0  0  0  0  0
    1.0160   -6.3550   34.2980 N   0  0  0  0  0  0  0  0  0  0  0  0
   -0.2010   -6.3740   33.4670 C   0  0  0  0  0  0  0  0  0  0  0  0
   -0.2860   -5.1210   32.5810 C   0  0  0  0  0  0  0  0  0  0  0  0
    0.2960   -4.0870   32.9780 O   0  0  0  0  0  0  0  0  0  0  0  0
   -0.9340   -5.2280   31.5170 O   0  0  0  0  0  0  0  0  0  0  0  0
    0.7400   -6.8400   35.6740 C   0  0  0  0  0  0  0  0  0  0  0  0
    0.0650   -8.0800   35.7940 C   0  0  0  0  0  0  0  0  0  0  0  0
    0.6980   -9.2850   35.4910 C   0  0  0  0  0  0  0  0  0  0  0  0
    0.0370  -10.5030   35.6240 C   0  0  0  0  0  0  0  0  0  0  0  0
   -1.2710  -10.5330   36.0850 C   0  0  0  0  0  0  0  0  0  0  0  0
   -1.9100   -9.3420   36.4050 C   0  0  0  0  0  0  0  0  0  0  0  0
   -1.2460   -8.1250   36.2660 C   0  0  0  0  0  0  0  0  0  0  0  0
   -2.0950   -6.6440   36.6850 S   0  0  0  0  0  0  0  0  0  0  0  0
   -3.5500   -6.8390   35.6800 C   0  0  0  0  0  0  0  0  0  0  0  0
    3.6170    1.3867   36.2673 H   0  0  0  0  0  0  0  0  0  0  0  0
    4.5670    1.3924   34.7429 H   0  0  0  0  0  0  0  0  0  0  0  0
    2.8655    1.9680   34.7429 H   0  0  0  0  0  0  0  0  0  0  0  0
    2.1072   -2.4406   35.0264 H   0  0  0  0  0  0  0  0  0  0  0  0
    5.4629    0.7275   33.7810 H   0  0  0  0  0  0  0  0  0  0  0  0
    6.6953   -0.6122   32.0774 H   0  0  0  0  0  0  0  0  0  0  0  0
    5.8053   -2.7984   31.2967 H   0  0  0  0  0  0  0  0  0  0  0  0
    2.5949   -3.7694   31.6339 H   0  0  0  0  0  0  0  0  0  0  0  0
    4.3033   -4.3596   31.4193 H   0  0  0  0  0  0  0  0  0  0  0  0
    5.1513   -6.0490   33.3885 H   0  0  0  0  0  0  0  0  0  0  0  0
    5.3393   -4.2904   33.7137 H   0  0  0  0  0  0  0  0  0  0  0  0
    5.4241   -5.9746   36.9550 H   0  0  0  0  0  0  0  0  0  0  0  0
    2.1684   -5.8960   31.8047 H   0  0  0  0  0  0  0  0  0  0  0  0
    3.7337   -6.7180   32.2178 H   0  0  0  0  0  0  0  0  0  0  0  0
    1.7776   -7.9317   33.1274 H   0  0  0  0  0  0  0  0  0  0  0  0
    2.8856   -7.2800   34.4237 H   0  0  0  0  0  0  0  0  0  0  0  0
   -1.0833   -6.4107   34.1229 H   0  0  0  0  0  0  0  0  0  0  0  0
   -0.1658   -7.2602   32.8162 H   0  0  0  0  0  0  0  0  0  0  0  0
    0.3928   -3.9150   33.9481 H   0  0  0  0  0  0  0  0  0  0  0  0
    1.7055   -6.9358   36.1923 H   0  0  0  0  0  0  0  0  0  0  0  0
    0.0539   -6.0973   36.1072 H   0  0  0  0  0  0  0  0  0  0  0  0
    1.7404   -9.2729   35.1399 H   0  0  0  0  0  0  0  0  0  0  0  0
    0.5511  -11.4401   35.3640 H   0  0  0  0  0  0  0  0  0  0  0  0
   -1.7979  -11.4922   36.1962 H   0  0  0  0  0  0  0  0  0  0  0  0
   -2.9473   -9.3597   36.7706 H   0  0  0  0  0  0  0  0  0  0  0  0
   -4.4305   -6.9570   36.3286 H   0  0  0  0  0  0  0  0  0  0  0  0
   -3.6788   -5.9501   35.0450 H   0  0  0  0  0  0  0  0  0  0  0  0
   -3.4402   -7.7305   35.0450 H   0  0  0  0  0  0  0  0  0  0  0  0
 22 20  2  0
  8  7  2  0
  8  9  1  0
 10  9  1  0
 10 11  1  0
  7  6  1  0
  9  4  2  0
 20 21  1  0
 20 19  1  0
 16 11  1  0
 16 17  1  0
 11 12  1  0
  6  3  2  0
 19 18  1  0
  4  3  1  0
  4  5  1  0
 17 18  1  0
 12 13  1  0
  3  2  1  0
 18 23  1  0
  2  1  1  0
 13 15  2  0
 13 14  1  0
 25 26  2  0
 25 24  1  0
 26 27  1  0
 23 24  1  0
 31 30  1  0
 24 29  2  0
 27 28  2  0
 29 28  1  0
 29 30  1  0
  1 32  1  0
  1 33  1  0
  1 34  1  0
  5 35  1  0
  6 36  1  0
  7 37  1  0
  8 38  1  0
 10 39  1  0
 10 40  1  0
 12 41  1  0
 12 42  1  0
 14 43  1  0
 16 44  1  0
 16 45  1  0
 17 46  1  0
 17 47  1  0
 19 48  1  0
 19 49  1  0
 21 50  1  0
 23 51  1  0
 23 52  1  0
 25 53  1  0
 26 54  1  0
 27 55  1  0
 28 56  1  0
 31 57  1  0
 31 58  1  0
 31 59  1  0
A    1
CBC
A    2
OAX
A    3
CAR
A    4
CAS
A    5
OAY
A    6
CAQ
A    7
CAE
A    8
CAF
A    9
CAG
A   10
CAH
A   11
N
A   12
CA
A   13
C
A   14
OXT
A   15
O
A   16
CAJ
A   17
CAK
A   18
NAL
A   19
CAT
A   20
CAZ
A   21
OBD
A   22
OBA
A   23
CAM
A   24
CAN
A   25
CAO
A   26
CAP
A   27
CAW
A   28
CAV
A   29
CAU
A   30
SBB
A   31
CBE
M  END
