5ONE_9YQ_A_501
     RDKit          3D

 69 73  0  0  0  0  0  0  0  0999 V2000
   28.4800  -10.4380   -4.8470 C   0  0  0  0  0  0  0  0  0  0  0  0
   30.6400   -9.5250   -5.6940 C   0  0  0  0  0  0  0  0  0  0  0  0
   29.5150   -8.6590   -3.6750 C   0  0  0  0  0  0  0  0  0  0  0  0
   30.6820   -8.6720   -3.0130 N   0  0  0  0  0  0  0  0  0  0  0  0
   30.7380   -8.0050   -1.8490 C   0  0  0  0  0  0  0  0  0  0  0  0
   33.2070   -8.5700   -1.4160 C   0  0  0  0  0  0  0  0  0  0  0  0
   31.9300   -7.9870   -1.1640 N   0  0  0  0  0  0  0  0  0  0  0  0
   34.2550   -8.3340   -0.5290 C   0  0  0  0  0  0  0  0  0  0  0  0
   35.5020   -8.8980   -0.7520 C   0  0  0  0  0  0  0  0  0  0  0  0
   35.7210   -9.7010   -1.8660 C   0  0  0  0  0  0  0  0  0  0  0  0
   38.2070   -9.9450   -1.8400 C   0  0  0  0  0  0  0  0  0  0  0  0
   36.9470  -10.3650   -2.1260 N   0  0  0  0  0  0  0  0  0  0  0  0
   39.2730  -10.9870   -1.9590 C   0  0  0  0  0  0  0  0  0  0  0  0
   39.1530  -12.1610   -1.2220 C   0  0  0  0  0  0  0  0  0  0  0  0
   40.0620  -13.1920   -1.3790 C   0  0  0  0  0  0  0  0  0  0  0  0
   42.0220  -14.1370   -2.5260 N   0  0  0  0  0  0  0  0  0  0  0  0
   25.3790   -8.6230   -5.0320 O   0  0  0  0  0  0  0  0  0  0  0  0
   26.4780   -8.8380   -4.5550 C   0  0  0  0  0  0  0  0  0  0  0  0
   27.1020  -10.1920   -4.7100 C   0  0  0  0  0  0  0  0  0  0  0  0
   26.2180  -11.2760   -4.7470 C   0  0  0  0  0  0  0  0  0  0  0  0
   27.1320   -7.8460   -3.8500 N   0  0  0  0  0  0  0  0  0  0  0  0
   26.4290   -6.5630   -3.8000 C   0  0  0  0  0  0  0  0  0  0  0  0
   28.3790   -7.9700   -3.1690 C   0  0  0  0  0  0  0  0  0  0  0  0
   29.4270   -9.3730   -4.8840 N   0  0  0  0  0  0  0  0  0  0  0  0
   28.9340  -11.7510   -4.9750 C   0  0  0  0  0  0  0  0  0  0  0  0
   28.0310  -12.8000   -4.9990 C   0  0  0  0  0  0  0  0  0  0  0  0
   26.6650  -12.5830   -4.9040 C   0  0  0  0  0  0  0  0  0  0  0  0
   25.6880  -13.7250   -5.0340 C   0  0  0  0  0  0  0  0  0  0  0  0
   28.5650   -7.3430   -1.9370 C   0  0  0  0  0  0  0  0  0  0  0  0
   29.7290   -7.3350   -1.2710 N   0  0  0  0  0  0  0  0  0  0  0  0
   33.4340   -9.3680   -2.5330 C   0  0  0  0  0  0  0  0  0  0  0  0
   34.6810   -9.9220   -2.7580 C   0  0  0  0  0  0  0  0  0  0  0  0
   38.4810   -8.7920   -1.5120 O   0  0  0  0  0  0  0  0  0  0  0  0
   40.3490  -10.8550   -2.8360 C   0  0  0  0  0  0  0  0  0  0  0  0
   41.2620  -11.8840   -2.9960 C   0  0  0  0  0  0  0  0  0  0  0  0
   41.1140  -13.0720   -2.2830 C   0  0  0  0  0  0  0  0  0  0  0  0
   42.0360  -15.3770   -1.9690 C   0  0  0  0  0  0  0  0  0  0  0  0
   41.5990  -15.6370   -0.8490 O   0  0  0  0  0  0  0  0  0  0  0  0
   42.6420  -16.4270   -2.8640 C   0  0  0  0  0  0  0  0  0  0  0  0
   44.1080  -16.7250   -2.5390 C   0  0  0  0  0  0  0  0  0  0  0  0
   31.5117   -9.6342   -5.0320 H   0  0  0  0  0  0  0  0  0  0  0  0
   30.5474  -10.4186   -6.3288 H   0  0  0  0  0  0  0  0  0  0  0  0
   30.7708   -8.6362   -6.3288 H   0  0  0  0  0  0  0  0  0  0  0  0
   31.8933   -7.4414   -0.2911 H   0  0  0  0  0  0  0  0  0  0  0  0
   34.0924   -7.6969    0.3529 H   0  0  0  0  0  0  0  0  0  0  0  0
   36.3224   -8.7092   -0.0439 H   0  0  0  0  0  0  0  0  0  0  0  0
   36.8727  -11.2814   -2.5903 H   0  0  0  0  0  0  0  0  0  0  0  0
   38.3253  -12.2707   -0.5058 H   0  0  0  0  0  0  0  0  0  0  0  0
   39.9529  -14.1121   -0.7861 H   0  0  0  0  0  0  0  0  0  0  0  0
   42.7654  -13.9450   -3.2125 H   0  0  0  0  0  0  0  0  0  0  0  0
   25.1385  -11.0887   -4.6491 H   0  0  0  0  0  0  0  0  0  0  0  0
   26.2699   -6.2727   -2.7510 H   0  0  0  0  0  0  0  0  0  0  0  0
   27.0321   -5.7945   -4.3057 H   0  0  0  0  0  0  0  0  0  0  0  0
   25.4567   -6.6577   -4.3057 H   0  0  0  0  0  0  0  0  0  0  0  0
   30.0121  -11.9532   -5.0571 H   0  0  0  0  0  0  0  0  0  0  0  0
   28.4060  -13.8296   -5.0957 H   0  0  0  0  0  0  0  0  0  0  0  0
   25.3924  -14.0705   -4.0324 H   0  0  0  0  0  0  0  0  0  0  0  0
   24.7971  -13.3848   -5.5822 H   0  0  0  0  0  0  0  0  0  0  0  0
   26.1620  -14.5525   -5.5822 H   0  0  0  0  0  0  0  0  0  0  0  0
   27.7065   -6.8246   -1.4851 H   0  0  0  0  0  0  0  0  0  0  0  0
   32.6155   -9.5597   -3.2424 H   0  0  0  0  0  0  0  0  0  0  0  0
   34.8498  -10.5424   -3.6505 H   0  0  0  0  0  0  0  0  0  0  0  0
   40.4740   -9.9232   -3.4071 H   0  0  0  0  0  0  0  0  0  0  0  0
   42.1077  -11.7629   -3.6890 H   0  0  0  0  0  0  0  0  0  0  0  0
   42.5790  -16.0774   -3.9051 H   0  0  0  0  0  0  0  0  0  0  0  0
   42.0768  -17.3572   -2.7050 H   0  0  0  0  0  0  0  0  0  0  0  0
   44.2434  -16.7525   -1.4477 H   0  0  0  0  0  0  0  0  0  0  0  0
   44.3881  -17.6984   -2.9679 H   0  0  0  0  0  0  0  0  0  0  0  0
   44.7459  -15.9382   -2.9679 H   0  0  0  0  0  0  0  0  0  0  0  0
  2 24  1  0
 28 27  1  0
 17 18  2  0
 26 25  2  0
 26 27  1  0
 25  1  1  0
 27 20  2  0
 24  1  1  0
 24  3  1  0
  1 19  2  0
 20 19  1  0
 19 18  1  0
 18 21  1  0
 21 22  1  0
 21 23  1  0
  3 23  1  0
  3  4  2  0
 23 29  2  0
  4  5  1  0
 35 34  2  0
 35 36  1  0
 39 40  1  0
 39 37  1  0
 34 13  1  0
 32 31  2  0
 32 10  1  0
 31  6  1  0
 16 36  1  0
 16 37  1  0
 36 15  2  0
 12 10  1  0
 12 11  1  0
 37 38  2  0
 13 11  1  0
 13 14  2  0
 29 30  1  0
 10  9  2  0
  5 30  2  0
  5  7  1  0
 11 33  2  0
  6  7  1  0
  6  8  2  0
 15 14  1  0
  9  8  1  0
  2 41  1  0
  2 42  1  0
  2 43  1  0
  7 44  1  0
  8 45  1  0
  9 46  1  0
 12 47  1  0
 14 48  1  0
 15 49  1  0
 16 50  1  0
 20 51  1  0
 22 52  1  0
 22 53  1  0
 22 54  1  0
 25 55  1  0
 26 56  1  0
 28 57  1  0
 28 58  1  0
 28 59  1  0
 29 60  1  0
 31 61  1  0
 32 62  1  0
 34 63  1  0
 35 64  1  0
 39 65  1  0
 39 66  1  0
 40 67  1  0
 40 68  1  0
 40 69  1  0
A    1
C4
A    2
C5
A    3
C6
A    4
N1
A    5
C7
A    6
C8
A    7
N2
A    8
C9
A    9
C10
A   10
C11
A   11
C12
A   12
N3
A   13
C13
A   14
C14
A   15
C15
A   16
N4
A   17
O2
A   18
C27
A   19
C3
A   20
C2
A   21
N6
A   22
C26
A   23
C25
A   24
N
A   25
C28
A   26
C29
A   27
C1
A   28
C
A   29
C24
A   30
N5
A   31
C23
A   32
C22
A   33
O1
A   34
C21
A   35
C20
A   36
C16
A   37
C17
A   38
O
A   39
C18
A   40
C19
M  END
