5OP4_A0T_A_301
     RDKit          3D

 52 54  0  0  0  0  0  0  0  0999 V2000
    3.4810   -6.0960   16.3710 C   0  0  0  0  0  0  0  0  0  0  0  0
    3.8220   -5.7670   17.8110 C   0  0  0  0  0  0  0  0  0  0  0  0
    4.9360   -4.8250   17.9020 N   0  0  0  0  0  0  0  0  0  0  0  0
    4.8110   -3.7590   18.6270 C   0  0  0  0  0  0  0  0  0  0  0  0
    5.8510   -2.8250   18.8510 C   0  0  0  0  0  0  0  0  0  0  0  0
    5.5880   -1.7000   19.6030 C   0  0  0  0  0  0  0  0  0  0  0  0
    4.3560   -1.6030   20.0790 N   0  0  0  0  0  0  0  0  0  0  0  0
    3.4100   -2.5430   19.9190 C   0  0  0  0  0  0  0  0  0  0  0  0
    3.6160   -3.6190   19.1790 N   0  0  0  0  0  0  0  0  0  0  0  0
    2.2320   -2.3300   20.4910 N   0  0  0  0  0  0  0  0  0  0  0  0
    1.0670   -3.0770   20.3330 C   0  0  0  0  0  0  0  0  0  0  0  0
    0.8350   -3.9430   19.2450 C   0  0  0  0  0  0  0  0  0  0  0  0
   -0.4220   -4.5820   19.1790 C   0  0  0  0  0  0  0  0  0  0  0  0
   -1.4060   -4.4030   20.1240 C   0  0  0  0  0  0  0  0  0  0  0  0
   -1.1830   -3.5290   21.1740 C   0  0  0  0  0  0  0  0  0  0  0  0
    0.0590   -2.8870   21.3050 C   0  0  0  0  0  0  0  0  0  0  0  0
    0.3220   -2.0240   22.3490 O   0  0  0  0  0  0  0  0  0  0  0  0
   -0.5860   -2.0820   23.4580 C   0  0  0  0  0  0  0  0  0  0  0  0
   -2.7900   -5.0940   20.0000 C   0  0  0  0  0  0  0  0  0  0  0  0
   -3.7620   -4.3680   19.7440 O   0  0  0  0  0  0  0  0  0  0  0  0
   -3.0650   -6.3770   20.3450 N   0  0  0  0  0  0  0  0  0  0  0  0
   -4.4660   -6.7750   20.6700 C   0  0  0  0  0  0  0  0  0  0  0  0
   -4.5890   -6.8750   22.2000 C   0  0  0  0  0  0  0  0  0  0  0  0
   -3.6990   -7.9660   22.5900 O   0  0  0  0  0  0  0  0  0  0  0  0
   -2.3100   -7.9780   22.0500 C   0  0  0  0  0  0  0  0  0  0  0  0
   -2.0330   -7.3780   20.6590 C   0  0  0  0  0  0  0  0  0  0  0  0
    7.2340   -2.9650   18.2280 C   0  0  0  0  0  0  0  0  0  0  0  0
   -0.7480   -5.4140   18.2080 F   0  0  0  0  0  0  0  0  0  0  0  0
    7.1300   -2.8890   16.8600 F   0  0  0  0  0  0  0  0  0  0  0  0
    7.7630   -4.1380   18.6610 F   0  0  0  0  0  0  0  0  0  0  0  0
    7.9660   -1.9610   18.5930 F   0  0  0  0  0  0  0  0  0  0  0  0
    2.6896   -6.8596   16.3469 H   0  0  0  0  0  0  0  0  0  0  0  0
    3.1294   -5.1872   15.8606 H   0  0  0  0  0  0  0  0  0  0  0  0
    4.3766   -6.4799   15.8606 H   0  0  0  0  0  0  0  0  0  0  0  0
    2.9391   -5.3225   18.2936 H   0  0  0  0  0  0  0  0  0  0  0  0
    4.1195   -6.6989   18.3141 H   0  0  0  0  0  0  0  0  0  0  0  0
    5.8131   -5.0074   17.3938 H   0  0  0  0  0  0  0  0  0  0  0  0
    6.3521   -0.9324   19.7953 H   0  0  0  0  0  0  0  0  0  0  0  0
    2.1721   -1.5198   21.1242 H   0  0  0  0  0  0  0  0  0  0  0  0
    1.6038   -4.1142   18.4771 H   0  0  0  0  0  0  0  0  0  0  0  0
   -1.9802   -3.3370   21.9072 H   0  0  0  0  0  0  0  0  0  0  0  0
   -0.0179   -2.0457   24.3993 H   0  0  0  0  0  0  0  0  0  0  0  0
   -1.2754   -1.2261   23.4126 H   0  0  0  0  0  0  0  0  0  0  0  0
   -1.1609   -3.0187   23.4126 H   0  0  0  0  0  0  0  0  0  0  0  0
   -5.1672   -6.0185   20.2878 H   0  0  0  0  0  0  0  0  0  0  0  0
   -4.7067   -7.7416   20.2033 H   0  0  0  0  0  0  0  0  0  0  0  0
   -4.2743   -5.9335   22.6738 H   0  0  0  0  0  0  0  0  0  0  0  0
   -5.6263   -7.0603   22.5159 H   0  0  0  0  0  0  0  0  0  0  0  0
   -1.9893   -9.0296   22.0147 H   0  0  0  0  0  0  0  0  0  0  0  0
   -1.7612   -7.3127   22.7328 H   0  0  0  0  0  0  0  0  0  0  0  0
   -2.0548   -8.1772   19.9035 H   0  0  0  0  0  0  0  0  0  0  0  0
   -1.0428   -6.8989   20.6557 H   0  0  0  0  0  0  0  0  0  0  0  0
  1  2  1  0
 29 27  1  0
  2  3  1  0
  3  4  1  0
 28 13  1  0
 27 31  1  0
 27 30  1  0
 27  5  1  0
  4  5  2  0
  4  9  1  0
  5  6  1  0
  9  8  2  0
 13 12  2  0
 13 14  1  0
 12 11  1  0
  6  7  2  0
 20 19  2  0
  8  7  1  0
  8 10  1  0
 19 14  1  0
 19 21  1  0
 14 15  2  0
 11 10  1  0
 11 16  2  0
 21 26  1  0
 21 22  1  0
 26 25  1  0
 22 23  1  0
 15 16  1  0
 16 17  1  0
 25 24  1  0
 23 24  1  0
 17 18  1  0
  1 32  1  0
  1 33  1  0
  1 34  1  0
  2 35  1  0
  2 36  1  0
  3 37  1  0
  6 38  1  0
 10 39  1  0
 12 40  1  0
 15 41  1  0
 18 42  1  0
 18 43  1  0
 18 44  1  0
 22 45  1  0
 22 46  1  0
 23 47  1  0
 23 48  1  0
 25 49  1  0
 25 50  1  0
 26 51  1  0
 26 52  1  0
A    1
C01
A    2
C02
A    3
N03
A    4
C04
A    5
C05
A    6
C06
A    7
N07
A    8
C08
A    9
N09
A   10
N10
A   11
C11
A   12
C12
A   13
C13
A   14
C14
A   15
C15
A   16
C16
A   17
O17
A   18
C18
A   19
C19
A   20
O20
A   21
N21
A   22
C22
A   23
C23
A   24
O24
A   25
C25
A   26
C26
A   27
C28
A   28
F27
A   29
F29
A   30
F30
A   31
F31
M  END
