5OPV_A3H_A_301
     RDKit          3D

 41 44  0  0  0  0  0  0  0  0999 V2000
  -18.5160   -2.3200   19.6820 N   0  0  0  0  0  0  0  0  0  0  0  0
  -19.4060   -4.3630   18.7200 C   0  0  0  0  0  0  0  0  0  0  0  0
  -19.5410   -3.1940   19.5000 C   0  0  0  0  0  0  0  0  0  0  0  0
  -16.2190   -1.7300   19.2070 N   0  0  0  0  0  0  0  0  0  0  0  0
  -18.1260   -4.5760   18.2200 C   0  0  0  0  0  0  0  0  0  0  0  0
  -14.4110   -5.2640   16.6230 N   0  0  0  0  0  0  0  0  0  0  0  0
  -15.2230   -2.3840   18.5560 C   0  0  0  0  0  0  0  0  0  0  0  0
  -20.6730   -2.7570   20.1070 N   0  0  0  0  0  0  0  0  0  0  0  0
  -15.7430   -3.5620   18.0450 C   0  0  0  0  0  0  0  0  0  0  0  0
  -23.3690   -4.9680   20.0760 N   0  0  0  0  0  0  0  0  0  0  0  0
  -17.0850   -3.6460   18.3960 C   0  0  0  0  0  0  0  0  0  0  0  0
  -22.1250   -4.6590   19.6990 N   0  0  0  0  0  0  0  0  0  0  0  0
  -17.3080   -2.4980   19.1590 C   0  0  0  0  0  0  0  0  0  0  0  0
  -15.0030   -4.5100   17.2600 C   0  0  0  0  0  0  0  0  0  0  0  0
  -18.0290   -5.8020   17.3920 C   0  0  0  0  0  0  0  0  0  0  0  0
  -18.5270   -7.0520   17.7590 C   0  0  0  0  0  0  0  0  0  0  0  0
  -18.4430   -8.1040   16.8470 C   0  0  0  0  0  0  0  0  0  0  0  0
  -17.9350   -7.9370   15.5670 C   0  0  0  0  0  0  0  0  0  0  0  0
  -17.5090   -6.6980   15.1700 C   0  0  0  0  0  0  0  0  0  0  0  0
  -17.5550   -5.6490   16.0920 C   0  0  0  0  0  0  0  0  0  0  0  0
  -21.8380   -3.4740   20.2150 C   0  0  0  0  0  0  0  0  0  0  0  0
  -22.9170   -3.0190   20.9520 C   0  0  0  0  0  0  0  0  0  0  0  0
  -23.8900   -3.9940   20.8620 C   0  0  0  0  0  0  0  0  0  0  0  0
  -24.0960   -6.1770   19.7010 C   0  0  0  0  0  0  0  0  0  0  0  0
  -16.9110   -6.4240   13.7590 C   0  0  0  0  0  0  0  0  0  0  0  0
  -20.2437   -5.0484   18.5241 H   0  0  0  0  0  0  0  0  0  0  0  0
  -16.1464   -0.8064   19.6571 H   0  0  0  0  0  0  0  0  0  0  0  0
  -14.1838   -2.0385   18.4524 H   0  0  0  0  0  0  0  0  0  0  0  0
  -20.6566   -1.8131   20.5190 H   0  0  0  0  0  0  0  0  0  0  0  0
  -18.9782   -7.2056   18.7504 H   0  0  0  0  0  0  0  0  0  0  0  0
  -18.7919   -9.1012   17.1535 H   0  0  0  0  0  0  0  0  0  0  0  0
  -17.8750   -8.7920   14.8775 H   0  0  0  0  0  0  0  0  0  0  0  0
  -17.2004   -4.6568   15.7761 H   0  0  0  0  0  0  0  0  0  0  0  0
  -22.9858   -2.0683   21.5011 H   0  0  0  0  0  0  0  0  0  0  0  0
  -24.8845   -3.9829   21.3319 H   0  0  0  0  0  0  0  0  0  0  0  0
  -24.4159   -6.7090   20.6091 H   0  0  0  0  0  0  0  0  0  0  0  0
  -24.9797   -5.9037   19.1057 H   0  0  0  0  0  0  0  0  0  0  0  0
  -23.4403   -6.8294   19.1057 H   0  0  0  0  0  0  0  0  0  0  0  0
  -15.9156   -5.9679   13.8649 H   0  0  0  0  0  0  0  0  0  0  0  0
  -16.8233   -7.3718   13.2076 H   0  0  0  0  0  0  0  0  0  0  0  0
  -17.5715   -5.7387   13.2076 H   0  0  0  0  0  0  0  0  0  0  0  0
 25 19  1  0
 19 18  2  0
 19 20  1  0
 18 17  1  0
 20 15  2  0
  6 14  3  0
 17 16  2  0
 14  9  1  0
 15 16  1  0
 15  5  1  0
  9 11  1  0
  9  7  2  0
  5 11  2  0
  5  2  1  0
 11 13  1  0
  7  4  1  0
  2  3  2  0
 13  4  1  0
 13  1  2  0
  3  1  1  0
  3  8  1  0
 12 10  1  0
 12 21  2  0
 24 10  1  0
 10 23  1  0
  8 21  1  0
 21 22  1  0
 23 22  2  0
  2 26  1  0
  4 27  1  0
  7 28  1  0
  8 29  1  0
 16 30  1  0
 17 31  1  0
 18 32  1  0
 20 33  1  0
 22 34  1  0
 23 35  1  0
 24 36  1  0
 24 37  1  0
 24 38  1  0
 25 39  1  0
 25 40  1  0
 25 41  1  0
A    1
N
A    2
C
A    3
C1
A    4
N1
A    5
C2
A    6
N2
A    7
C3
A    8
N3
A    9
C4
A   10
N4
A   11
C5
A   12
N5
A   13
C6
A   14
C7
A   15
C8
A   16
C9
A   17
C10
A   18
C11
A   19
C12
A   20
C13
A   21
C14
A   22
C15
A   23
C16
A   24
C17
A   25
C18
M  END
