5ORB_JR6_A_2001
     RDKit          3D

 41 43  0  0  0  0  0  0  0  0999 V2000
  -35.3050   -7.2600    0.3030 C   0  0  0  0  0  0  0  0  0  0  0  0
  -33.3090   -8.3890    0.8790 C   0  0  0  0  0  0  0  0  0  0  0  0
  -32.4560   -8.8680    1.8660 C   0  0  0  0  0  0  0  0  0  0  0  0
  -31.5670   -9.8890    1.5770 C   0  0  0  0  0  0  0  0  0  0  0  0
  -31.5310  -10.4350    0.3010 C   0  0  0  0  0  0  0  0  0  0  0  0
  -29.3520  -11.3410   -1.5260 C   0  0  0  0  0  0  0  0  0  0  0  0
  -28.3320  -10.2920   -1.0930 C   0  0  0  0  0  0  0  0  0  0  0  0
  -26.4450   -9.5740    0.4590 C   0  0  0  0  0  0  0  0  0  0  0  0
  -26.6970   -8.2260    0.6950 C   0  0  0  0  0  0  0  0  0  0  0  0
  -27.8030   -7.1620    0.6690 C   0  0  0  0  0  0  0  0  0  0  0  0
  -27.2590   -5.9650    1.4080 C   0  0  0  0  0  0  0  0  0  0  0  0
  -25.7460   -6.1390    1.3780 C   0  0  0  0  0  0  0  0  0  0  0  0
  -25.4970   -7.6430    1.1020 C   0  0  0  0  0  0  0  0  0  0  0  0
  -24.4800  -11.0610    0.5960 C   0  0  0  0  0  0  0  0  0  0  0  0
  -32.3810   -9.9590   -0.6830 C   0  0  0  0  0  0  0  0  0  0  0  0
  -33.2680   -8.9360   -0.3940 C   0  0  0  0  0  0  0  0  0  0  0  0
  -27.4250  -10.5620    0.0150 N   0  0  0  0  0  0  0  0  0  0  0  0
  -24.5490   -8.6140    1.1180 N   0  0  0  0  0  0  0  0  0  0  0  0
  -25.1600   -9.7810    0.7140 N   0  0  0  0  0  0  0  0  0  0  0  0
  -34.2060   -7.3550    1.1700 O   0  0  0  0  0  0  0  0  0  0  0  0
  -28.2910   -9.2600   -1.6640 O   0  0  0  0  0  0  0  0  0  0  0  0
  -30.3660  -11.7750   -0.0830 S   0  0  0  0  0  0  0  0  0  0  0  0
  -36.2307   -7.1800    0.8918 H   0  0  0  0  0  0  0  0  0  0  0  0
  -35.1956   -6.3680   -0.3313 H   0  0  0  0  0  0  0  0  0  0  0  0
  -35.3503   -8.1576   -0.3313 H   0  0  0  0  0  0  0  0  0  0  0  0
  -32.4872   -8.4358    2.8770 H   0  0  0  0  0  0  0  0  0  0  0  0
  -30.8901  -10.2672    2.3572 H   0  0  0  0  0  0  0  0  0  0  0  0
  -29.9921  -10.9320   -2.3216 H   0  0  0  0  0  0  0  0  0  0  0  0
  -28.8386  -12.2338   -1.9123 H   0  0  0  0  0  0  0  0  0  0  0  0
  -28.0455   -6.8904   -0.3690 H   0  0  0  0  0  0  0  0  0  0  0  0
  -28.7260   -7.5344    1.1373 H   0  0  0  0  0  0  0  0  0  0  0  0
  -27.5513   -5.0327    0.9026 H   0  0  0  0  0  0  0  0  0  0  0  0
  -27.6478   -5.9011    2.4350 H   0  0  0  0  0  0  0  0  0  0  0  0
  -25.3084   -5.8498    2.3449 H   0  0  0  0  0  0  0  0  0  0  0  0
  -25.2817   -5.5049    0.6084 H   0  0  0  0  0  0  0  0  0  0  0  0
  -24.2691  -11.4581    1.5999 H   0  0  0  0  0  0  0  0  0  0  0  0
  -25.1214  -11.7680    0.0494 H   0  0  0  0  0  0  0  0  0  0  0  0
  -23.5351  -10.9252    0.0494 H   0  0  0  0  0  0  0  0  0  0  0  0
  -32.3515  -10.3932   -1.6933 H   0  0  0  0  0  0  0  0  0  0  0  0
  -33.9417   -8.5564   -1.1763 H   0  0  0  0  0  0  0  0  0  0  0  0
  -27.4761  -11.4711    0.4965 H   0  0  0  0  0  0  0  0  0  0  0  0
 21  7  2  0
  6  7  1  0
  6 22  1  0
  7 17  1  0
 15 16  1  0
 15  5  2  0
 16  2  2  0
 22  5  1  0
 17  8  1  0
  5  4  1  0
  1 20  1  0
  8  9  2  0
  8 19  1  0
 14 19  1  0
 10  9  1  0
 10 11  1  0
  9 13  1  0
 19 18  1  0
  2 20  1  0
  2  3  1  0
 13 18  2  0
 13 12  1  0
 12 11  1  0
  4  3  2  0
  1 23  1  0
  1 24  1  0
  1 25  1  0
  3 26  1  0
  4 27  1  0
  6 28  1  0
  6 29  1  0
 10 30  1  0
 10 31  1  0
 11 32  1  0
 11 33  1  0
 12 34  1  0
 12 35  1  0
 14 36  1  0
 14 37  1  0
 14 38  1  0
 15 39  1  0
 16 40  1  0
 17 41  1  0
A    1
C01
A    2
C03
A    3
C04
A    4
C05
A    5
C06
A    6
C08
A    7
C09
A    8
C12
A    9
C13
A   10
C14
A   11
C15
A   12
C16
A   13
C17
A   14
C20
A   15
C21
A   16
C22
A   17
N11
A   18
N18
A   19
N19
A   20
O02
A   21
O10
A   22
S07
M  END
