5OTA_AQQ_A_301
     RDKit          3D

 30 29  0  0  0  0  0  0  0  0999 V2000
    5.8840   19.2790  -12.2500 O   0  0  0  0  0  0  0  0  0  0  0  0
    5.7380   20.4790  -11.9630 C   0  0  0  0  0  0  0  0  0  0  0  0
    4.3180   21.0350  -11.6900 C   0  0  0  0  0  0  0  0  0  0  0  0
    3.7970   21.7700  -12.9240 C   0  0  0  0  0  0  0  0  0  0  0  0
    3.3440   19.9980  -11.2840 N   0  0  0  0  0  0  0  0  0  0  0  0
    3.6080   19.2440  -10.0910 C   0  0  0  0  0  0  0  0  0  0  0  0
    2.4760   18.2210   -9.9300 C   0  0  0  0  0  0  0  0  0  0  0  0
    2.5900   17.2110   -9.1740 O   0  0  0  0  0  0  0  0  0  0  0  0
    1.3780   18.4020  -10.5310 O   0  0  0  0  0  0  0  0  0  0  0  0
    3.6190   20.2040   -8.8850 C   0  0  0  0  0  0  0  0  0  0  0  0
    4.2380   19.7250   -7.5770 C   0  0  0  0  0  0  0  0  0  0  0  0
    4.0350   20.8160   -6.5390 C   0  0  0  0  0  0  0  0  0  0  0  0
    4.3150   20.3510   -5.1770 N   0  0  0  0  0  0  0  0  0  0  0  0
    6.7650   21.2220  -11.8990 O   0  0  0  0  0  0  0  0  0  0  0  0
    4.4170   21.7275  -10.8411 H   0  0  0  0  0  0  0  0  0  0  0  0
    3.1876   22.6297  -12.6086 H   0  0  0  0  0  0  0  0  0  0  0  0
    4.6469   22.1241  -13.5259 H   0  0  0  0  0  0  0  0  0  0  0  0
    3.1814   21.0853  -13.5259 H   0  0  0  0  0  0  0  0  0  0  0  0
    2.4363   20.4670  -11.1534 H   0  0  0  0  0  0  0  0  0  0  0  0
    4.5801   18.7326  -10.1509 H   0  0  0  0  0  0  0  0  0  0  0  0
    2.5772   17.3248   -8.1906 H   0  0  0  0  0  0  0  0  0  0  0  0
    4.1690   21.1054   -9.1931 H   0  0  0  0  0  0  0  0  0  0  0  0
    2.5550   20.3431   -8.6431 H   0  0  0  0  0  0  0  0  0  0  0  0
    3.7452   18.7985   -7.2472 H   0  0  0  0  0  0  0  0  0  0  0  0
    5.3100   19.5188   -7.7125 H   0  0  0  0  0  0  0  0  0  0  0  0
    4.7082   21.6543   -6.7714 H   0  0  0  0  0  0  0  0  0  0  0  0
    2.9796   21.1237   -6.5779 H   0  0  0  0  0  0  0  0  0  0  0  0
    3.9152   21.0149   -4.4986 H   0  0  0  0  0  0  0  0  0  0  0  0
    3.8928   19.4219   -5.0378 H   0  0  0  0  0  0  0  0  0  0  0  0
    7.1305   21.4864  -11.0178 H   0  0  0  0  0  0  0  0  0  0  0  0
  4  3  1  0
  1  2  2  0
  2 14  1  0
  2  3  1  0
  3  5  1  0
  5  6  1  0
  9  7  2  0
  6  7  1  0
  6 10  1  0
  7  8  1  0
 10 11  1  0
 11 12  1  0
 12 13  1  0
  3 15  1  0
  4 16  1  0
  4 17  1  0
  4 18  1  0
  5 19  1  0
  6 20  1  0
  8 21  1  0
 10 22  1  0
 10 23  1  0
 11 24  1  0
 11 25  1  0
 12 26  1  0
 12 27  1  0
 13 28  1  0
 13 29  1  0
 14 30  1  0
A    1
O
A    2
C
A    3
CA
A    4
CB
A    5
N
A    6
CAN
A    7
CAL
A    8
OAF
A    9
OAD
A   10
CAI
A   11
CAH
A   12
CAG
A   13
NAB
A   14
OXT
M  END
