5OVX_AY5_A_601
     RDKit          3D

 45 47  0  0  0  0  0  0  0  0999 V2000
    0.7410  -14.0130  -22.9490 C   0  0  0  0  0  0  0  0  0  0  0  0
    2.0180  -14.4870  -22.7420 C   0  0  0  0  0  0  0  0  0  0  0  0
    4.3500  -16.2760  -22.7070 C   0  0  0  0  0  0  0  0  0  0  0  0
    6.6090  -15.1640  -23.8350 C   0  0  0  0  0  0  0  0  0  0  0  0
    1.5840  -11.1560  -26.8530 C   0  0  0  0  0  0  0  0  0  0  0  0
    2.3600  -10.1940  -27.4610 C   0  0  0  0  0  0  0  0  0  0  0  0
    2.4820  -14.3050  -25.0670 C   0  0  0  0  0  0  0  0  0  0  0  0
    2.3100  -12.7760  -28.4650 C   0  0  0  0  0  0  0  0  0  0  0  0
    4.2230  -15.1830  -23.5410 C   0  0  0  0  0  0  0  0  0  0  0  0
    2.9030  -14.6430  -23.7940 C   0  0  0  0  0  0  0  0  0  0  0  0
    6.7160  -16.2540  -22.9940 C   0  0  0  0  0  0  0  0  0  0  0  0
    1.2020  -13.8260  -25.2890 C   0  0  0  0  0  0  0  0  0  0  0  0
    1.5570  -12.4460  -27.3500 C   0  0  0  0  0  0  0  0  0  0  0  0
    0.7130  -13.4650  -26.6550 C   0  0  0  0  0  0  0  0  0  0  0  0
    8.0280  -16.8790  -22.6850 C   0  0  0  0  0  0  0  0  0  0  0  0
    5.3630  -14.6290  -24.0950 C   0  0  0  0  0  0  0  0  0  0  0  0
    0.3380  -13.6890  -24.2260 C   0  0  0  0  0  0  0  0  0  0  0  0
    5.5880  -16.8080  -22.4240 C   0  0  0  0  0  0  0  0  0  0  0  0
    3.1050  -10.5370  -28.5690 C   0  0  0  0  0  0  0  0  0  0  0  0
    3.0860  -11.8180  -29.0800 C   0  0  0  0  0  0  0  0  0  0  0  0
    9.8170  -14.7630  -22.9490 O   0  0  0  0  0  0  0  0  0  0  0  0
    0.6500  -14.6630  -27.4180 O   0  0  0  0  0  0  0  0  0  0  0  0
    8.6120  -17.3180  -23.8960 O   0  0  0  0  0  0  0  0  0  0  0  0
   10.4370  -16.9280  -21.6540 O   0  0  0  0  0  0  0  0  0  0  0  0
    8.6830  -15.2050  -20.6320 O   0  0  0  0  0  0  0  0  0  0  0  0
    9.3120  -15.8050  -21.9880 P   0  0  0  0  0  0  0  0  0  0  0  0
    4.0690   -9.3340  -29.3230 Cl  0  0  0  0  0  0  0  0  0  0  0  0
    4.0400  -12.2220  -30.4750 Cl  0  0  0  0  0  0  0  0  0  0  0  0
    0.0492  -13.8943  -22.1020 H   0  0  0  0  0  0  0  0  0  0  0  0
    2.3396  -14.7460  -21.7224 H   0  0  0  0  0  0  0  0  0  0  0  0
    3.4506  -16.7276  -22.2630 H   0  0  0  0  0  0  0  0  0  0  0  0
    7.5079  -14.7261  -24.2934 H   0  0  0  0  0  0  0  0  0  0  0  0
    0.9834  -10.8970  -25.9686 H   0  0  0  0  0  0  0  0  0  0  0  0
    2.3849   -9.1669  -27.0681 H   0  0  0  0  0  0  0  0  0  0  0  0
    3.1735  -14.4182  -25.9150 H   0  0  0  0  0  0  0  0  0  0  0  0
    2.2883  -13.8027  -28.8592 H   0  0  0  0  0  0  0  0  0  0  0  0
   -0.2764  -12.9954  -26.5522 H   0  0  0  0  0  0  0  0  0  0  0  0
    7.7678  -17.6471  -21.9418 H   0  0  0  0  0  0  0  0  0  0  0  0
    5.2757  -13.7506  -24.7514 H   0  0  0  0  0  0  0  0  0  0  0  0
   -0.6831  -13.3176  -24.3977 H   0  0  0  0  0  0  0  0  0  0  0  0
    5.6774  -17.6703  -21.7469 H   0  0  0  0  0  0  0  0  0  0  0  0
    0.6091  -15.4413  -26.8075 H   0  0  0  0  0  0  0  0  0  0  0  0
    9.3871  -17.9007  -23.6964 H   0  0  0  0  0  0  0  0  0  0  0  0
   10.5297  -17.0206  -20.6727 H   0  0  0  0  0  0  0  0  0  0  0  0
    9.1227  -15.6244  -19.8505 H   0  0  0  0  0  0  0  0  0  0  0  0
 28 20  1  0
 27 19  1  0
 20 19  2  0
 20  8  1  0
 19  6  1  0
  8 13  2  0
  6  5  2  0
 22 14  1  0
 13  5  1  0
 13 14  1  0
 14 12  1  0
 12  7  2  0
 12 17  1  0
  7 10  1  0
 17  1  2  0
 16  4  2  0
 16  9  1  0
 23 15  1  0
  4 11  1  0
 10  9  1  0
 10  2  2  0
  9  3  2  0
 11 15  1  0
 11 18  2  0
 21 26  2  0
  1  2  1  0
  3 18  1  0
 15 26  1  0
 26 24  1  0
 26 25  1  0
  1 29  1  0
  2 30  1  0
  3 31  1  0
  4 32  1  0
  5 33  1  0
  6 34  1  0
  7 35  1  0
  8 36  1  0
 14 37  1  0
 15 38  1  0
 16 39  1  0
 17 40  1  0
 18 41  1  0
 22 42  1  0
 23 43  1  0
 24 44  1  0
 25 45  1  0
A    1
C1
A    2
C2
A    3
C3
A    4
C7
A    5
C8
A    6
C9
A    7
C10
A    8
C11
A    9
C12
A   10
C13
A   11
C14
A   12
C15
A   13
C16
A   14
C19
A   15
C20
A   16
C4
A   17
C5
A   18
C6
A   19
C17
A   20
C18
A   21
O21
A   22
O22
A   23
O23
A   24
O24
A   25
O25
A   26
P26
A   27
CL1
A   28
CL2
M  END
