5OW1_AY8_A_601
     RDKit          3D

 47 49  0  0  0  0  0  0  0  0999 V2000
    9.1730  -19.0060  -17.9710 C   0  0  0  0  0  0  0  0  0  0  0  0
    8.2130  -19.9400  -18.3120 C   0  0  0  0  0  0  0  0  0  0  0  0
    9.7760  -18.2800  -18.9870 C   0  0  0  0  0  0  0  0  0  0  0  0
    9.4410  -18.4680  -20.3170 C   0  0  0  0  0  0  0  0  0  0  0  0
    8.4820  -19.4150  -20.6270 C   0  0  0  0  0  0  0  0  0  0  0  0
    7.8680  -20.1530  -19.6310 C   0  0  0  0  0  0  0  0  0  0  0  0
   10.0900  -17.6620  -21.4060 C   0  0  0  0  0  0  0  0  0  0  0  0
    9.4950  -18.7770  -16.5720 C   0  0  0  0  0  0  0  0  0  0  0  0
    9.9580  -18.2510  -13.8830 C   0  0  0  0  0  0  0  0  0  0  0  0
    9.4080  -17.2810  -14.6940 C   0  0  0  0  0  0  0  0  0  0  0  0
    9.1690  -17.5510  -16.0230 C   0  0  0  0  0  0  0  0  0  0  0  0
   10.0550  -19.7390  -15.7360 C   0  0  0  0  0  0  0  0  0  0  0  0
   10.2850  -19.4910  -14.3860 C   0  0  0  0  0  0  0  0  0  0  0  0
   10.8570  -20.4620  -13.3910 C   0  0  0  0  0  0  0  0  0  0  0  0
   12.3280  -20.8020  -13.5640 C   0  0  0  0  0  0  0  0  0  0  0  0
   12.8350  -21.5970  -12.3690 C   0  0  0  0  0  0  0  0  0  0  0  0
   11.9530  -22.7940  -12.0330 C   0  0  0  0  0  0  0  0  0  0  0  0
   10.4770  -22.4350  -11.9190 C   0  0  0  0  0  0  0  0  0  0  0  0
    9.9920  -21.6920  -13.1560 C   0  0  0  0  0  0  0  0  0  0  0  0
    9.4670  -15.9860  -21.8120 P   0  0  0  0  0  0  0  0  0  0  0  0
   10.2190  -15.3900  -22.9680 O   0  0  0  0  0  0  0  0  0  0  0  0
    9.5820  -15.1470  -20.4310 O   0  0  0  0  0  0  0  0  0  0  0  0
    7.8540  -16.1080  -21.9560 O   0  0  0  0  0  0  0  0  0  0  0  0
   11.4090  -17.3790  -21.1960 F   0  0  0  0  0  0  0  0  0  0  0  0
   10.0030  -18.2000  -22.6570 F   0  0  0  0  0  0  0  0  0  0  0  0
   10.3740  -20.9730  -16.2740 O   0  0  0  0  0  0  0  0  0  0  0  0
    7.7171  -20.5216  -17.5210 H   0  0  0  0  0  0  0  0  0  0  0  0
   10.5419  -17.5339  -18.7289 H   0  0  0  0  0  0  0  0  0  0  0  0
    8.2042  -19.5834  -21.6779 H   0  0  0  0  0  0  0  0  0  0  0  0
    7.1086  -20.9058  -19.8891 H   0  0  0  0  0  0  0  0  0  0  0  0
   10.1381  -18.0318  -12.8202 H   0  0  0  0  0  0  0  0  0  0  0  0
    9.1604  -16.2925  -14.2798 H   0  0  0  0  0  0  0  0  0  0  0  0
    8.7111  -16.7784  -16.6582 H   0  0  0  0  0  0  0  0  0  0  0  0
   10.8282  -19.8817  -12.4570 H   0  0  0  0  0  0  0  0  0  0  0  0
   12.4562  -21.4006  -14.4779 H   0  0  0  0  0  0  0  0  0  0  0  0
   12.9029  -19.8673  -13.6395 H   0  0  0  0  0  0  0  0  0  0  0  0
   13.8485  -21.9605  -12.5942 H   0  0  0  0  0  0  0  0  0  0  0  0
   12.8241  -20.9252  -11.4980 H   0  0  0  0  0  0  0  0  0  0  0  0
   12.0697  -23.5483  -12.8251 H   0  0  0  0  0  0  0  0  0  0  0  0
   12.2750  -23.1738  -11.0522 H   0  0  0  0  0  0  0  0  0  0  0  0
   10.3309  -21.7951  -11.0363 H   0  0  0  0  0  0  0  0  0  0  0  0
    9.8992  -23.3662  -11.8242 H   0  0  0  0  0  0  0  0  0  0  0  0
    8.9472  -21.3810  -13.0089 H   0  0  0  0  0  0  0  0  0  0  0  0
   10.0614  -22.3570  -14.0295 H   0  0  0  0  0  0  0  0  0  0  0  0
    9.4974  -15.7644  -19.6618 H   0  0  0  0  0  0  0  0  0  0  0  0
    7.4437  -16.1390  -21.0556 H   0  0  0  0  0  0  0  0  0  0  0  0
   10.5716  -21.7373  -15.6766 H   0  0  0  0  0  0  0  0  0  0  0  0
 21 20  2  0
 25  7  1  0
 23 20  1  0
 20  7  1  0
 20 22  1  0
  7 24  1  0
  7  4  1  0
  5  4  2  0
  5  6  1  0
  4  3  1  0
  6  2  2  0
  3  1  2  0
  2  1  1  0
  1  8  1  0
  8 11  2  0
  8 12  1  0
 26 12  1  0
 11 10  1  0
 12 13  2  0
 10  9  2  0
 13  9  1  0
 13 14  1  0
 15 14  1  0
 15 16  1  0
 14 19  1  0
 19 18  1  0
 16 17  1  0
 17 18  1  0
  2 27  1  0
  3 28  1  0
  5 29  1  0
  6 30  1  0
  9 31  1  0
 10 32  1  0
 11 33  1  0
 14 34  1  0
 15 35  1  0
 15 36  1  0
 16 37  1  0
 16 38  1  0
 17 39  1  0
 17 40  1  0
 18 41  1  0
 18 42  1  0
 19 43  1  0
 19 44  1  0
 22 45  1  0
 23 46  1  0
 26 47  1  0
A    1
C1
A    2
C2
A    3
C3
A    4
C4
A    5
C5
A    6
C6
A    7
C7
A    8
C14
A    9
C15
A   10
C16
A   11
C17
A   12
C18
A   13
C19
A   14
C21
A   15
C22
A   16
C23
A   17
C24
A   18
C25
A   19
C26
A   20
P8
A   21
O9
A   22
O10
A   23
O11
A   24
F12
A   25
F13
A   26
O20
M  END
