5OPC_A1Z_A_412
     RDKit          3D

 32 33  0  0  0  0  0  0  0  0999 V2000
  -24.0200   20.9030   -5.6670 O   0  0  0  0  0  0  0  0  0  0  0  0
  -24.5710   22.2200   -5.8860 C   0  0  0  0  0  0  0  0  0  0  0  0
  -25.6050   22.4090   -6.7620 C   0  0  0  0  0  0  0  0  0  0  0  0
  -26.1880   21.2210   -7.5240 C   0  0  0  0  0  0  0  0  0  0  0  0
  -25.6950   19.9250   -7.3220 N   0  0  0  0  0  0  0  0  0  0  0  0
  -26.2880   18.7750   -8.0940 C   0  0  0  0  0  0  0  0  0  0  0  0
  -25.4250   18.4190   -9.2340 C   0  0  0  0  0  0  0  0  0  0  0  0
  -25.2590   17.2610   -9.5170 O   0  0  0  0  0  0  0  0  0  0  0  0
  -24.8220   19.3830   -9.9260 O   0  0  0  0  0  0  0  0  0  0  0  0
  -27.0520   21.3930   -8.3090 O   0  0  0  0  0  0  0  0  0  0  0  0
  -26.1220   23.6190   -6.9720 N   0  0  0  0  0  0  0  0  0  0  0  0
  -25.6520   24.6830   -6.3370 C   0  0  0  0  0  0  0  0  0  0  0  0
  -24.6160   24.5780   -5.4420 C   0  0  0  0  0  0  0  0  0  0  0  0
  -24.0480   23.3270   -5.1980 C   0  0  0  0  0  0  0  0  0  0  0  0
  -24.1050   25.8520   -4.7290 C   0  0  0  0  0  0  0  0  0  0  0  0
  -24.9780   26.5950   -3.9810 C   0  0  0  0  0  0  0  0  0  0  0  0
  -24.5340   27.7490   -3.3360 C   0  0  0  0  0  0  0  0  0  0  0  0
  -25.6830   28.7150   -2.3530 Cl  0  0  0  0  0  0  0  0  0  0  0  0
  -23.2070   28.1450   -3.4590 C   0  0  0  0  0  0  0  0  0  0  0  0
  -22.3400   27.4010   -4.2110 C   0  0  0  0  0  0  0  0  0  0  0  0
  -22.7880   26.2460   -4.8550 C   0  0  0  0  0  0  0  0  0  0  0  0
  -23.8813   20.5716   -4.7445 H   0  0  0  0  0  0  0  0  0  0  0  0
  -24.9321   19.7596   -6.6501 H   0  0  0  0  0  0  0  0  0  0  0  0
  -27.2811   19.0641   -8.4683 H   0  0  0  0  0  0  0  0  0  0  0  0
  -26.3728   17.9047   -7.4266 H   0  0  0  0  0  0  0  0  0  0  0  0
  -25.1621   16.5852   -8.8001 H   0  0  0  0  0  0  0  0  0  0  0  0
  -26.1002   25.6687   -6.5305 H   0  0  0  0  0  0  0  0  0  0  0  0
  -23.2157   23.2114   -4.4882 H   0  0  0  0  0  0  0  0  0  0  0  0
  -26.0285   26.2822   -3.8888 H   0  0  0  0  0  0  0  0  0  0  0  0
  -22.8548   29.0555   -2.9522 H   0  0  0  0  0  0  0  0  0  0  0  0
  -21.2896   27.7126   -4.3084 H   0  0  0  0  0  0  0  0  0  0  0  0
  -22.0914   25.6499   -5.4628 H   0  0  0  0  0  0  0  0  0  0  0  0
  9  7  2  0
  8  7  1  0
  7  6  1  0
 10  4  2  0
  6  5  1  0
  4  5  1  0
  4  3  1  0
 11  3  1  0
 11 12  2  0
  3  2  2  0
 12 13  1  0
  2  1  1  0
  2 14  1  0
 13 14  2  0
 13 15  1  0
 21 15  1  0
 21 20  2  0
 15 16  2  0
 20 19  1  0
 16 17  1  0
 19 17  2  0
 17 18  1  0
  1 22  1  0
  5 23  1  0
  6 24  1  0
  6 25  1  0
  8 26  1  0
 12 27  1  0
 14 28  1  0
 16 29  1  0
 19 30  1  0
 20 31  1  0
 21 32  1  0
A    1
O01
A    2
C02
A    3
C03
A    4
C04
A    5
N05
A    6
C06
A    7
C07
A    8
O08
A    9
O09
A   10
O10
A   11
N11
A   12
C12
A   13
C13
A   14
C21
A   15
C14
A   16
C15
A   17
C16
A   18
CL
A   19
C18
A   20
C19
A   21
C20
M  END
