5OY4_B4K_A_504
     RDKit          3D

 33 35  0  0  0  0  0  0  0  0999 V2000
  102.1350   24.3450   -9.3360 C   0  0  0  0  0  0  0  0  0  0  0  0
  103.5840   26.0690  -10.8830 C   0  0  0  0  0  0  0  0  0  0  0  0
  101.5910   22.0780   -8.3720 C   0  0  0  0  0  0  0  0  0  0  0  0
   99.7320   21.7920   -6.8690 C   0  0  0  0  0  0  0  0  0  0  0  0
  100.2290   23.9700   -7.7740 C   0  0  0  0  0  0  0  0  0  0  0  0
  107.5920   27.7230  -12.4520 C   0  0  0  0  0  0  0  0  0  0  0  0
  106.3960   27.3380  -11.6320 C   0  0  0  0  0  0  0  0  0  0  0  0
  106.5030   26.9280  -10.4800 O   0  0  0  0  0  0  0  0  0  0  0  0
  105.1830   27.4760  -12.2610 N   0  0  0  0  0  0  0  0  0  0  0  0
  103.9250   27.1950  -11.7400 C   0  0  0  0  0  0  0  0  0  0  0  0
  102.8550   27.9420  -11.9800 N   0  0  0  0  0  0  0  0  0  0  0  0
  101.8190   27.3320  -11.2960 N   0  0  0  0  0  0  0  0  0  0  0  0
  102.2180   26.2140  -10.6330 C   0  0  0  0  0  0  0  0  0  0  0  0
  101.4640   25.4010   -9.8830 N   0  0  0  0  0  0  0  0  0  0  0  0
  103.5150   24.1220   -9.5310 C   0  0  0  0  0  0  0  0  0  0  0  0
  104.2550   24.9930  -10.3190 C   0  0  0  0  0  0  0  0  0  0  0  0
  101.3120   23.4450   -8.4900 C   0  0  0  0  0  0  0  0  0  0  0  0
  100.8100   21.2580   -7.5730 C   0  0  0  0  0  0  0  0  0  0  0  0
   98.9340   21.0420   -6.0690 O   0  0  0  0  0  0  0  0  0  0  0  0
   99.4450   23.1580   -6.9720 C   0  0  0  0  0  0  0  0  0  0  0  0
   98.3970   23.6960   -6.2910 O   0  0  0  0  0  0  0  0  0  0  0  0
  102.4420   21.6489   -8.9212 H   0  0  0  0  0  0  0  0  0  0  0  0
   99.9979   25.0428   -7.8498 H   0  0  0  0  0  0  0  0  0  0  0  0
  108.4238   27.9908  -11.7839 H   0  0  0  0  0  0  0  0  0  0  0  0
  107.8897   26.8753  -13.0866 H   0  0  0  0  0  0  0  0  0  0  0  0
  107.3393   28.5852  -13.0866 H   0  0  0  0  0  0  0  0  0  0  0  0
  105.2081   27.8277  -13.2288 H   0  0  0  0  0  0  0  0  0  0  0  0
  100.8517   27.6858  -11.2896 H   0  0  0  0  0  0  0  0  0  0  0  0
  104.0044   23.2576   -9.0584 H   0  0  0  0  0  0  0  0  0  0  0  0
  105.3304   24.8366  -10.4896 H   0  0  0  0  0  0  0  0  0  0  0  0
  101.0409   20.1854   -7.4944 H   0  0  0  0  0  0  0  0  0  0  0  0
   99.0113   21.1146   -5.0847 H   0  0  0  0  0  0  0  0  0  0  0  0
   98.3975   23.6958   -5.3010 H   0  0  0  0  0  0  0  0  0  0  0  0
 19  4  1  0
 21 20  1  0
  4 20  2  0
  4 18  1  0
 20  5  1  0
 18  3  2  0
  5 17  2  0
  3 17  1  0
 17  1  1  0
  1 15  2  0
  1 14  1  0
 15 16  1  0
 14 13  2  0
 16  2  2  0
 13  2  1  0
 13 12  1  0
  2 10  1  0
  8  7  2  0
 12 11  1  0
 10 11  2  0
 10  9  1  0
  7  9  1  0
  7  6  1  0
  3 22  1  0
  5 23  1  0
  6 24  1  0
  6 25  1  0
  6 26  1  0
  9 27  1  0
 12 28  1  0
 15 29  1  0
 16 30  1  0
 18 31  1  0
 19 32  1  0
 21 33  1  0
A    1
C10
A    2
C13
A    3
C15
A    4
C17
A    5
C21
A    6
C01
A    7
C02
A    8
O03
A    9
N04
A   10
C05
A   11
N06
A   12
N07
A   13
C08
A   14
N09
A   15
C11
A   16
C12
A   17
C14
A   18
C16
A   19
O18
A   20
C19
A   21
O20
M  END
