5P2P_DHG_A_126
     RDKit          3D

 70 69  0  0  0  0  0  0  0  0999 V2000
  -20.6290  -23.8870  -16.2040 C   0  0  0  0  0  0  0  0  0  0  0  0
  -19.8670  -24.0330  -17.5540 C   0  0  0  0  0  0  0  0  0  0  0  0
  -19.9400  -22.7360  -18.3630 C   0  0  0  0  0  0  0  0  0  0  0  0
  -21.3630  -22.1700  -18.5120 C   0  0  0  0  0  0  0  0  0  0  0  0
  -21.5710  -20.7030  -18.2550 C   0  0  0  0  0  0  0  0  0  0  0  0
  -22.0690  -19.9380  -19.4570 C   0  0  0  0  0  0  0  0  0  0  0  0
  -22.5060  -18.4340  -19.2250 C   0  0  0  0  0  0  0  0  0  0  0  0
  -22.1790  -17.9140  -17.8120 C   0  0  0  0  0  0  0  0  0  0  0  0
  -21.3300  -16.6130  -17.8300 C   0  0  0  0  0  0  0  0  0  0  0  0
  -21.2120  -16.0290  -16.4080 C   0  0  0  0  0  0  0  0  0  0  0  0
  -22.5580  -15.8890  -15.8030 C   0  0  0  0  0  0  0  0  0  0  0  0
  -22.5050  -16.4280  -14.4610 C   0  0  0  0  0  0  0  0  0  0  0  0
  -21.8250  -24.2650  -15.9750 O   0  0  0  0  0  0  0  0  0  0  0  0
  -19.8250  -23.2640  -15.2310 N   0  0  0  0  0  0  0  0  0  0  0  0
  -19.3900  -23.8400  -12.8630 C   0  0  0  0  0  0  0  0  0  0  0  0
  -20.3070  -23.0010  -13.8400 C   0  0  0  0  0  0  0  0  0  0  0  0
  -20.3100  -21.4750  -13.6820 C   0  0  0  0  0  0  0  0  0  0  0  0
  -21.5680  -20.8450  -14.2490 C   0  0  0  0  0  0  0  0  0  0  0  0
  -22.7010  -20.9310  -13.2480 C   0  0  0  0  0  0  0  0  0  0  0  0
  -23.9560  -20.5620  -13.9040 C   0  0  0  0  0  0  0  0  0  0  0  0
  -21.5960  -25.0230  -10.1050 O   0  0  0  0  0  0  0  0  0  0  0  0
  -22.0560  -25.5660  -12.5570 O   0  0  0  0  0  0  0  0  0  0  0  0
  -20.1260  -23.9940  -11.7880 O   0  0  0  0  0  0  0  0  0  0  0  0
  -21.0880  -25.1970  -11.4870 P   0  0  0  0  0  0  0  0  0  0  0  0
  -19.9720  -26.2280  -11.2750 O   0  0  0  0  0  0  0  0  0  0  0  0
  -19.2200  -26.2100  -10.1400 C   0  0  0  0  0  0  0  0  0  0  0  0
  -18.9920  -27.5500   -9.5420 C   0  0  0  0  0  0  0  0  0  0  0  0
  -18.0830  -28.2230  -10.3090 O   0  0  0  0  0  0  0  0  0  0  0  0
  -18.8128  -24.2712  -17.3490 H   0  0  0  0  0  0  0  0  0  0  0  0
  -20.3356  -24.8391  -18.1376 H   0  0  0  0  0  0  0  0  0  0  0  0
  -19.3180  -21.9801  -17.8614 H   0  0  0  0  0  0  0  0  0  0  0  0
  -19.5842  -22.9729  -19.3766 H   0  0  0  0  0  0  0  0  0  0  0  0
  -21.6881  -22.3704  -19.5436 H   0  0  0  0  0  0  0  0  0  0  0  0
  -21.9416  -22.6715  -17.7222 H   0  0  0  0  0  0  0  0  0  0  0  0
  -22.3074  -20.5939  -17.4451 H   0  0  0  0  0  0  0  0  0  0  0  0
  -20.5895  -20.2818  -17.9916 H   0  0  0  0  0  0  0  0  0  0  0  0
  -21.2635  -19.9371  -20.2061 H   0  0  0  0  0  0  0  0  0  0  0  0
  -22.9890  -20.4574  -19.7634 H   0  0  0  0  0  0  0  0  0  0  0  0
  -21.9843  -17.8020  -19.9588 H   0  0  0  0  0  0  0  0  0  0  0  0
  -23.5989  -18.3910  -19.3425 H   0  0  0  0  0  0  0  0  0  0  0  0
  -23.1230  -17.7102  -17.2854 H   0  0  0  0  0  0  0  0  0  0  0  0
  -21.5866  -18.6887  -17.3032 H   0  0  0  0  0  0  0  0  0  0  0  0
  -20.3243  -16.8416  -18.2126 H   0  0  0  0  0  0  0  0  0  0  0  0
  -21.8224  -15.8743  -18.4796 H   0  0  0  0  0  0  0  0  0  0  0  0
  -20.6021  -16.7020  -15.7875 H   0  0  0  0  0  0  0  0  0  0  0  0
  -20.7366  -15.0386  -16.4632 H   0  0  0  0  0  0  0  0  0  0  0  0
  -22.8424  -14.8270  -15.7675 H   0  0  0  0  0  0  0  0  0  0  0  0
  -23.3040  -16.4311  -16.4026 H   0  0  0  0  0  0  0  0  0  0  0  0
  -22.5857  -15.6075  -13.7329 H   0  0  0  0  0  0  0  0  0  0  0  0
  -23.3383  -17.1310  -14.3150 H   0  0  0  0  0  0  0  0  0  0  0  0
  -21.5507  -16.9552  -14.3150 H   0  0  0  0  0  0  0  0  0  0  0  0
  -18.8689  -22.9786  -15.4866 H   0  0  0  0  0  0  0  0  0  0  0  0
  -19.1364  -24.8145  -13.3057 H   0  0  0  0  0  0  0  0  0  0  0  0
  -18.4319  -23.3427  -12.6515 H   0  0  0  0  0  0  0  0  0  0  0  0
  -21.3299  -23.3283  -13.6024 H   0  0  0  0  0  0  0  0  0  0  0  0
  -20.2414  -21.2291  -12.6120 H   0  0  0  0  0  0  0  0  0  0  0  0
  -19.4501  -21.0751  -14.2394 H   0  0  0  0  0  0  0  0  0  0  0  0
  -21.3703  -19.7883  -14.4823 H   0  0  0  0  0  0  0  0  0  0  0  0
  -21.8573  -21.3868  -15.1616 H   0  0  0  0  0  0  0  0  0  0  0  0
  -22.7754  -21.9594  -12.8649 H   0  0  0  0  0  0  0  0  0  0  0  0
  -22.5065  -20.2432  -12.4119 H   0  0  0  0  0  0  0  0  0  0  0  0
  -24.7165  -20.3384  -13.1413 H   0  0  0  0  0  0  0  0  0  0  0  0
  -23.7941  -19.6734  -14.5319 H   0  0  0  0  0  0  0  0  0  0  0  0
  -24.3008  -21.3968  -14.5319 H   0  0  0  0  0  0  0  0  0  0  0  0
  -22.8971  -25.8866  -12.1448 H   0  0  0  0  0  0  0  0  0  0  0  0
  -18.2418  -25.7683  -10.3808 H   0  0  0  0  0  0  0  0  0  0  0  0
  -19.7804  -25.6228   -9.3977 H   0  0  0  0  0  0  0  0  0  0  0  0
  -18.6025  -27.4376   -8.5194 H   0  0  0  0  0  0  0  0  0  0  0  0
  -19.9382  -28.1097   -9.5045 H   0  0  0  0  0  0  0  0  0  0  0  0
  -17.4425  -28.6972   -9.7217 H   0  0  0  0  0  0  0  0  0  0  0  0
  1  2  1  0
  1 13  2  0
  1 14  1  0
  2  3  1  0
  3  4  1  0
  4  5  1  0
  5  6  1  0
  6  7  1  0
  7  8  1  0
  8  9  1  0
  9 10  1  0
 10 11  1  0
 11 12  1  0
 14 16  1  0
 15 16  1  0
 15 23  1  0
 16 17  1  0
 17 18  1  0
 18 19  1  0
 19 20  1  0
 21 24  2  0
 22 24  1  0
 23 24  1  0
 24 25  1  0
 25 26  1  0
 26 27  1  0
 27 28  1  0
  2 29  1  0
  2 30  1  0
  3 31  1  0
  3 32  1  0
  4 33  1  0
  4 34  1  0
  5 35  1  0
  5 36  1  0
  6 37  1  0
  6 38  1  0
  7 39  1  0
  7 40  1  0
  8 41  1  0
  8 42  1  0
  9 43  1  0
  9 44  1  0
 10 45  1  0
 10 46  1  0
 11 47  1  0
 11 48  1  0
 12 49  1  0
 12 50  1  0
 12 51  1  0
 14 52  1  0
 15 53  1  0
 15 54  1  0
 16 55  1  0
 17 56  1  0
 17 57  1  0
 18 58  1  0
 18 59  1  0
 19 60  1  0
 19 61  1  0
 20 62  1  0
 20 63  1  0
 20 64  1  0
 22 65  1  0
 26 66  1  0
 26 67  1  0
 27 68  1  0
 27 69  1  0
 28 70  1  0
A    1
C1
A    2
C2
A    3
C3
A    4
C4
A    5
C5
A    6
C6
A    7
C7
A    8
C8
A    9
C9
A   10
C10
A   11
C11
A   12
C12
A   13
O1
A   14
N
A   15
CH1
A   16
CH2
A   17
CH3
A   18
CH4
A   19
CH5
A   20
CH6
A   21
O1P
A   22
O2P
A   23
O3P
A   24
P
A   25
OG1
A   26
CG1
A   27
CG2
A   28
OG2
M  END
