5P8Z_766_A_305
     RDKit          3D

 52 55  0  0  0  0  0  0  0  0999 V2000
   -1.6290   11.0460   26.6920 N   0  0  0  0  0  0  0  0  0  0  0  0
   -4.5700    8.8740   26.7360 C   0  0  0  0  0  0  0  0  0  0  0  0
   -5.1680    7.6490   26.1470 C   0  0  0  0  0  0  0  0  0  0  0  0
   -5.5400    6.6510   27.1460 C   0  0  0  0  0  0  0  0  0  0  0  0
   -6.6000    6.6510   27.9770 C   0  0  0  0  0  0  0  0  0  0  0  0
   -5.5240    4.5820   28.5070 C   0  0  0  0  0  0  0  0  0  0  0  0
    1.9060   14.5700   25.5010 C   0  0  0  0  0  0  0  0  0  0  0  0
    0.6420   15.0250   25.0550 C   0  0  0  0  0  0  0  0  0  0  0  0
    0.5770   16.2970   24.2960 C   0  0  0  0  0  0  0  0  0  0  0  0
   -1.6920   12.3030   26.2270 C   0  0  0  0  0  0  0  0  0  0  0  0
    1.9620   13.3540   26.1910 C   0  0  0  0  0  0  0  0  0  0  0  0
   -0.4380   17.5650   22.5380 C   0  0  0  0  0  0  0  0  0  0  0  0
    1.3480   18.5660   23.8930 C   0  0  0  0  0  0  0  0  0  0  0  0
   -2.8250   10.2610   27.0360 C   0  0  0  0  0  0  0  0  0  0  0  0
   -3.4230    9.4190   25.9150 C   0  0  0  0  0  0  0  0  0  0  0  0
   -4.5420    5.2510   27.3350 S   0  0  0  0  0  0  0  0  0  0  0  0
   -6.6430    5.4460   28.7650 C   0  0  0  0  0  0  0  0  0  0  0  0
   -5.3970    3.4030   29.2390 C   0  0  0  0  0  0  0  0  0  0  0  0
   -6.3730    3.0780   30.1450 C   0  0  0  0  0  0  0  0  0  0  0  0
   -7.4820    3.9150   30.3890 N   0  0  0  0  0  0  0  0  0  0  0  0
   -7.5630    5.0210   29.7360 C   0  0  0  0  0  0  0  0  0  0  0  0
    3.1760   12.9020   26.6700 O   0  0  0  0  0  0  0  0  0  0  0  0
    0.9680   11.4530   27.2240 O   0  0  0  0  0  0  0  0  0  0  0  0
   -0.4330   13.0530   26.0190 C   0  0  0  0  0  0  0  0  0  0  0  0
   -0.5010   14.2350   25.2990 C   0  0  0  0  0  0  0  0  0  0  0  0
    0.7970   12.6020   26.4670 C   0  0  0  0  0  0  0  0  0  0  0  0
   -0.3750   16.4290   23.2940 C   0  0  0  0  0  0  0  0  0  0  0  0
    0.4120   18.5940   22.8820 C   0  0  0  0  0  0  0  0  0  0  0  0
    1.4120   17.3750   24.6030 C   0  0  0  0  0  0  0  0  0  0  0  0
    0.3980   19.7800   22.1610 F   0  0  0  0  0  0  0  0  0  0  0  0
   -2.7750   12.8290   25.9590 O   0  0  0  0  0  0  0  0  0  0  0  0
   -0.7030   10.6116   26.8135 H   0  0  0  0  0  0  0  0  0  0  0  0
   -4.1986    8.6344   27.7433 H   0  0  0  0  0  0  0  0  0  0  0  0
   -5.3539    9.6452   26.7630 H   0  0  0  0  0  0  0  0  0  0  0  0
   -6.0702    7.9354   25.5866 H   0  0  0  0  0  0  0  0  0  0  0  0
   -4.4052    7.1930   25.4987 H   0  0  0  0  0  0  0  0  0  0  0  0
   -7.3367    7.4650   28.0450 H   0  0  0  0  0  0  0  0  0  0  0  0
    2.8177   15.1553   25.3107 H   0  0  0  0  0  0  0  0  0  0  0  0
   -1.1359   17.6545   21.6925 H   0  0  0  0  0  0  0  0  0  0  0  0
    1.9969   19.4246   24.1207 H   0  0  0  0  0  0  0  0  0  0  0  0
   -3.5998   10.9626   27.3786 H   0  0  0  0  0  0  0  0  0  0  0  0
   -2.4952    9.5419   27.8003 H   0  0  0  0  0  0  0  0  0  0  0  0
   -2.7401    8.6326   25.5613 H   0  0  0  0  0  0  0  0  0  0  0  0
   -3.6732    9.9327   24.9750 H   0  0  0  0  0  0  0  0  0  0  0  0
   -4.5283    2.7443   29.0923 H   0  0  0  0  0  0  0  0  0  0  0  0
   -6.2886    2.1324   30.7006 H   0  0  0  0  0  0  0  0  0  0  0  0
   -8.4152    5.6812   29.9548 H   0  0  0  0  0  0  0  0  0  0  0  0
    3.3324   12.8438   27.6458 H   0  0  0  0  0  0  0  0  0  0  0  0
    0.9601   11.5058   28.2126 H   0  0  0  0  0  0  0  0  0  0  0  0
   -1.4737   14.5666   24.9066 H   0  0  0  0  0  0  0  0  0  0  0  0
   -1.0857   15.6105   23.1070 H   0  0  0  0  0  0  0  0  0  0  0  0
    2.1359   17.2774   25.4255 H   0  0  0  0  0  0  0  0  0  0  0  0
 30 28  1  0
 12 28  2  0
 12 27  1  0
 28 13  1  0
 27  9  2  0
 13 29  2  0
  9 29  1  0
  9  8  1  0
  8 25  1  0
  8  7  2  0
 25 24  2  0
  7 11  1  0
 15  2  1  0
 15 14  1  0
 31 10  2  0
 24 10  1  0
 24 26  1  0
  3  2  1  0
  3  4  1  0
 11 26  2  0
 11 22  1  0
 10  1  1  0
 26 23  1  0
  1 14  1  0
  4 16  1  0
  4  5  2  0
 16  6  1  0
  5 17  1  0
  6 17  2  0
  6 18  1  0
 17 21  1  0
 18 19  2  0
 21 20  2  0
 19 20  1  0
  1 32  1  0
  2 33  1  0
  2 34  1  0
  3 35  1  0
  3 36  1  0
  5 37  1  0
  7 38  1  0
 12 39  1  0
 13 40  1  0
 14 41  1  0
 14 42  1  0
 15 43  1  0
 15 44  1  0
 18 45  1  0
 19 46  1  0
 21 47  1  0
 22 48  1  0
 23 49  1  0
 25 50  1  0
 27 51  1  0
 29 52  1  0
A    1
N1
A    2
C4
A    3
C5
A    4
C6
A    5
C8
A    6
C10
A    7
C17
A    8
C20
A    9
C21
A   10
C22
A   11
C24
A   12
C26
A   13
C28
A   14
C2
A   15
C3
A   16
S7
A   17
C9
A   18
C11
A   19
C12
A   20
N13
A   21
C14
A   22
O15
A   23
O16
A   24
C18
A   25
C19
A   26
C23
A   27
C25
A   28
C27
A   29
C29
A   30
F30
A   31
O31
M  END
