5P93_76S_A_306
     RDKit          3D

 49 52  0  0  0  0  0  0  0  0999 V2000
   -0.5030   13.7440   25.1580 C   0  0  0  0  0  0  0  0  0  0  0  0
   -0.3400   12.5510   25.8790 C   0  0  0  0  0  0  0  0  0  0  0  0
    0.9180   12.2200   26.4120 C   0  0  0  0  0  0  0  0  0  0  0  0
    0.4430   15.8480   24.1650 C   0  0  0  0  0  0  0  0  0  0  0  0
    1.2310   16.9530   24.4710 C   0  0  0  0  0  0  0  0  0  0  0  0
    0.2420   18.1740   22.6910 C   0  0  0  0  0  0  0  0  0  0  0  0
   -4.5030    5.7190   27.5770 C   0  0  0  0  0  0  0  0  0  0  0  0
   -3.1440    6.9660   26.5070 C   0  0  0  0  0  0  0  0  0  0  0  0
   -5.5210    5.2750   28.5230 C   0  0  0  0  0  0  0  0  0  0  0  0
   -7.5180    5.5650   29.8420 C   0  0  0  0  0  0  0  0  0  0  0  0
    2.0140   13.0730   26.1460 C   0  0  0  0  0  0  0  0  0  0  0  0
    1.8410   14.2400   25.4310 C   0  0  0  0  0  0  0  0  0  0  0  0
    0.5800   14.6020   24.9200 C   0  0  0  0  0  0  0  0  0  0  0  0
    1.1200   18.1400   23.7590 C   0  0  0  0  0  0  0  0  0  0  0  0
   -0.5370   17.0770   22.3360 C   0  0  0  0  0  0  0  0  0  0  0  0
   -0.4550   15.9290   23.1020 C   0  0  0  0  0  0  0  0  0  0  0  0
    0.1480   19.3110   21.9690 F   0  0  0  0  0  0  0  0  0  0  0  0
    3.2450   12.6910   26.6200 O   0  0  0  0  0  0  0  0  0  0  0  0
    1.1500   11.1400   27.1880 O   0  0  0  0  0  0  0  0  0  0  0  0
   -1.5350   11.6500   26.0570 C   0  0  0  0  0  0  0  0  0  0  0  0
   -1.3520   10.3800   26.4900 N   0  0  0  0  0  0  0  0  0  0  0  0
   -2.6740   12.0010   25.6930 O   0  0  0  0  0  0  0  0  0  0  0  0
   -4.0610    7.0170   27.4620 N   0  0  0  0  0  0  0  0  0  0  0  0
   -3.9380    4.8810   26.6910 N   0  0  0  0  0  0  0  0  0  0  0  0
   -3.0950    5.6750   26.0440 N   0  0  0  0  0  0  0  0  0  0  0  0
   -2.3210    8.0810   25.9740 C   0  0  0  0  0  0  0  0  0  0  0  0
   -7.4200    4.3030   30.3370 N   0  0  0  0  0  0  0  0  0  0  0  0
   -2.4310    9.4280   26.7560 C   0  0  0  0  0  0  0  0  0  0  0  0
   -6.4190    3.5150   29.9050 C   0  0  0  0  0  0  0  0  0  0  0  0
   -6.5770    6.1350   28.9340 C   0  0  0  0  0  0  0  0  0  0  0  0
   -5.4280    3.9390   29.0080 C   0  0  0  0  0  0  0  0  0  0  0  0
   -1.4982   14.0107   24.7727 H   0  0  0  0  0  0  0  0  0  0  0  0
    1.9573   16.8849   25.2943 H   0  0  0  0  0  0  0  0  0  0  0  0
   -8.3715    6.1819   30.1596 H   0  0  0  0  0  0  0  0  0  0  0  0
    2.7039   14.8997   25.2570 H   0  0  0  0  0  0  0  0  0  0  0  0
    1.7116   19.0251   24.0357 H   0  0  0  0  0  0  0  0  0  0  0  0
   -1.2049   17.1223   21.4631 H   0  0  0  0  0  0  0  0  0  0  0  0
   -1.1043   15.0718   22.8705 H   0  0  0  0  0  0  0  0  0  0  0  0
    3.4061   12.6410   27.5955 H   0  0  0  0  0  0  0  0  0  0  0  0
    1.1316   11.2258   28.1741 H   0  0  0  0  0  0  0  0  0  0  0  0
   -0.3845   10.0615   26.6430 H   0  0  0  0  0  0  0  0  0  0  0  0
   -4.3721    7.8406   27.9965 H   0  0  0  0  0  0  0  0  0  0  0  0
   -1.2679    7.7637   25.9911 H   0  0  0  0  0  0  0  0  0  0  0  0
   -2.7050    8.2850   24.9636 H   0  0  0  0  0  0  0  0  0  0  0  0
   -3.3839    9.9054   26.4836 H   0  0  0  0  0  0  0  0  0  0  0  0
   -2.3639    9.1733   27.8240 H   0  0  0  0  0  0  0  0  0  0  0  0
   -6.3754    2.4804   30.2760 H   0  0  0  0  0  0  0  0  0  0  0  0
   -6.6623    7.1713   28.5752 H   0  0  0  0  0  0  0  0  0  0  0  0
   -4.6144    3.2691   28.6927 H   0  0  0  0  0  0  0  0  0  0  0  0
 17  6  1  0
 15  6  2  0
 15 16  1  0
  6 14  1  0
 16  4  2  0
 14  5  2  0
  4  5  1  0
  4 13  1  0
 13  1  2  0
 13 12  1  0
  1  2  1  0
 12 11  2  0
 22 20  2  0
  2 20  1  0
  2  3  2  0
 26  8  1  0
 26 28  1  0
 25  8  2  0
 25 24  1  0
 20 21  1  0
 11  3  1  0
 11 18  1  0
  3 19  1  0
 21 28  1  0
  8 23  1  0
 24  7  2  0
 23  7  1  0
  7  9  1  0
  9 30  1  0
  9 31  2  0
 30 10  2  0
 31 29  1  0
 10 27  1  0
 29 27  2  0
  1 32  1  0
  5 33  1  0
 10 34  1  0
 12 35  1  0
 14 36  1  0
 15 37  1  0
 16 38  1  0
 18 39  1  0
 19 40  1  0
 21 41  1  0
 23 42  1  0
 26 43  1  0
 26 44  1  0
 28 45  1  0
 28 46  1  0
 29 47  1  0
 30 48  1  0
 31 49  1  0
A    1
C4
A    2
C5
A    3
C6
A    4
C7
A    5
C8
A    6
C10
A    7
C20
A    8
C22
A    9
C24
A   10
C28
A   11
C1
A   12
C2
A   13
C3
A   14
C9
A   15
C11
A   16
C12
A   17
F13
A   18
O14
A   19
O15
A   20
C16
A   21
N17
A   22
O18
A   23
N19
A   24
N21
A   25
N23
A   26
C25
A   27
N26
A   28
C27
A   29
C29
A   30
C30
A   31
C31
M  END
