5P94_76T_A_306
     RDKit          3D

 59 63  0  0  0  0  0  0  0  0999 V2000
   -1.7100   12.6500   26.2230 C   0  0  0  0  0  0  0  0  0  0  0  0
    0.7160   15.1500   24.8830 C   0  0  0  0  0  0  0  0  0  0  0  0
    2.0060   13.4410   26.0540 C   0  0  0  0  0  0  0  0  0  0  0  0
   -5.8710    4.3480   28.6450 C   0  0  0  0  0  0  0  0  0  0  0  0
    1.9510   14.6270   25.3360 C   0  0  0  0  0  0  0  0  0  0  0  0
    0.6670   16.4130   24.0920 C   0  0  0  0  0  0  0  0  0  0  0  0
   -5.1210    4.6390   27.4810 C   0  0  0  0  0  0  0  0  0  0  0  0
   -0.2370   16.5730   23.0610 C   0  0  0  0  0  0  0  0  0  0  0  0
   -5.4780    5.7910   26.7870 C   0  0  0  0  0  0  0  0  0  0  0  0
   -5.5070    6.9160   24.5670 C   0  0  0  0  0  0  0  0  0  0  0  0
   -3.7320   10.1310   25.6120 C   0  0  0  0  0  0  0  0  0  0  0  0
   -0.3930   13.2890   25.9150 C   0  0  0  0  0  0  0  0  0  0  0  0
    0.8140   12.7460   26.3770 C   0  0  0  0  0  0  0  0  0  0  0  0
   -0.4370   14.4680   25.2070 C   0  0  0  0  0  0  0  0  0  0  0  0
   -6.8480    3.4940   30.4760 N   0  0  0  0  0  0  0  0  0  0  0  0
   -7.4720    4.6970   30.2310 N   0  0  0  0  0  0  0  0  0  0  0  0
   -1.7470   11.3520   26.5170 N   0  0  0  0  0  0  0  0  0  0  0  0
   -6.8750    5.2540   29.1240 C   0  0  0  0  0  0  0  0  0  0  0  0
   -5.8920    3.2940   29.5980 C   0  0  0  0  0  0  0  0  0  0  0  0
   -2.7520   13.3160   26.2060 O   0  0  0  0  0  0  0  0  0  0  0  0
   -4.8410    6.0540   25.5780 N   0  0  0  0  0  0  0  0  0  0  0  0
   -7.1240    6.4280   28.4100 C   0  0  0  0  0  0  0  0  0  0  0  0
    1.5270   17.4540   24.3820 C   0  0  0  0  0  0  0  0  0  0  0  0
    0.9420   11.6140   27.1190 O   0  0  0  0  0  0  0  0  0  0  0  0
   -2.9740   10.6370   26.8240 C   0  0  0  0  0  0  0  0  0  0  0  0
    3.1870   12.9540   26.5000 O   0  0  0  0  0  0  0  0  0  0  0  0
    0.6230   18.7340   22.6150 C   0  0  0  0  0  0  0  0  0  0  0  0
   -4.2050    8.8260   25.6240 C   0  0  0  0  0  0  0  0  0  0  0  0
   -6.4320    6.6930   27.2780 C   0  0  0  0  0  0  0  0  0  0  0  0
   -4.9710    8.3380   24.5840 C   0  0  0  0  0  0  0  0  0  0  0  0
   -0.2510   17.7250   22.3200 C   0  0  0  0  0  0  0  0  0  0  0  0
    1.5270   18.6500   23.6660 C   0  0  0  0  0  0  0  0  0  0  0  0
    0.5820   19.8680   21.8800 F   0  0  0  0  0  0  0  0  0  0  0  0
   -4.7700   10.4790   23.4600 C   0  0  0  0  0  0  0  0  0  0  0  0
   -5.2330    9.1660   23.5050 C   0  0  0  0  0  0  0  0  0  0  0  0
   -4.0130   10.9640   24.5240 C   0  0  0  0  0  0  0  0  0  0  0  0
    2.8820   15.1696   25.1152 H   0  0  0  0  0  0  0  0  0  0  0  0
   -4.3000    3.9896   27.1430 H   0  0  0  0  0  0  0  0  0  0  0  0
   -0.9519   15.7688   22.8327 H   0  0  0  0  0  0  0  0  0  0  0  0
   -6.5862    6.9414   24.7786 H   0  0  0  0  0  0  0  0  0  0  0  0
   -5.3043    6.4901   23.5733 H   0  0  0  0  0  0  0  0  0  0  0  0
   -1.4103   14.8737   24.8938 H   0  0  0  0  0  0  0  0  0  0  0  0
   -8.2444    5.1050   30.7768 H   0  0  0  0  0  0  0  0  0  0  0  0
   -0.8604   10.8279   26.5273 H   0  0  0  0  0  0  0  0  0  0  0  0
   -5.2060    2.4341   29.6000 H   0  0  0  0  0  0  0  0  0  0  0  0
   -3.9121    5.6531   25.3847 H   0  0  0  0  0  0  0  0  0  0  0  0
   -7.8837    7.1382   28.7684 H   0  0  0  0  0  0  0  0  0  0  0  0
    2.2403   17.3346   25.2109 H   0  0  0  0  0  0  0  0  0  0  0  0
    0.9360   11.6668   28.1076 H   0  0  0  0  0  0  0  0  0  0  0  0
   -3.6352   11.3153   27.3832 H   0  0  0  0  0  0  0  0  0  0  0  0
   -2.6797    9.7475   27.4003 H   0  0  0  0  0  0  0  0  0  0  0  0
    3.3578   12.8836   27.4726 H   0  0  0  0  0  0  0  0  0  0  0  0
   -3.9660    8.1709   26.4747 H   0  0  0  0  0  0  0  0  0  0  0  0
   -6.6209    7.6306   26.7347 H   0  0  0  0  0  0  0  0  0  0  0  0
   -0.9637   17.8379   21.4897 H   0  0  0  0  0  0  0  0  0  0  0  0
    2.2039   19.4794   23.9188 H   0  0  0  0  0  0  0  0  0  0  0  0
   -4.9986   11.1227   22.5978 H   0  0  0  0  0  0  0  0  0  0  0  0
   -5.8221    8.7766   22.6616 H   0  0  0  0  0  0  0  0  0  0  0  0
   -3.6377   11.9979   24.5087 H   0  0  0  0  0  0  0  0  0  0  0  0
 33 27  1  0
 31 27  1  0
 31  8  2  0
 27 32  2  0
  8  6  1  0
 34 35  2  0
 34 36  1  0
 35 30  1  0
 32 23  1  0
  6 23  2  0
  6  2  1  0
 36 11  2  0
 10 30  1  0
 10 21  1  0
 30 28  2  0
  2 14  2  0
  2  5  1  0
 14 12  1  0
  5  3  2  0
 21  9  1  0
 11 28  1  0
 11 25  1  0
 12  1  1  0
 12 13  2  0
  3 13  1  0
  3 26  1  0
 20  1  2  0
  1 17  1  0
 13 24  1  0
 17 25  1  0
  9 29  1  0
  9  7  2  0
 29 22  2  0
  7  4  1  0
 22 18  1  0
  4 18  2  0
  4 19  1  0
 18 16  1  0
 19 15  2  0
 16 15  1  0
  5 37  1  0
  7 38  1  0
  8 39  1  0
 10 40  1  0
 10 41  1  0
 14 42  1  0
 16 43  1  0
 17 44  1  0
 19 45  1  0
 21 46  1  0
 22 47  1  0
 23 48  1  0
 24 49  1  0
 25 50  1  0
 25 51  1  0
 26 52  1  0
 28 53  1  0
 29 54  1  0
 31 55  1  0
 32 56  1  0
 34 57  1  0
 35 58  1  0
 36 59  1  0
A    1
C4
A    2
C6
A    3
C7
A    4
C8
A    5
C10
A    6
C13
A    7
C15
A    8
C20
A    9
C21
A   10
C26
A   11
C28
A   12
C1
A   13
C2
A   14
C3
A   15
N5
A   16
N9
A   17
N11
A   18
C12
A   19
C14
A   20
O16
A   21
N17
A   22
C18
A   23
C19
A   24
O22
A   25
C23
A   26
O24
A   27
C25
A   28
C27
A   29
C29
A   30
C30
A   31
C31
A   32
C32
A   33
F33
A   34
C34
A   35
C35
A   36
C36
M  END
