5P95_77G_A_305
     RDKit          3D

 56 59  0  0  0  0  0  0  0  0999 V2000
   -8.3530   13.7210   15.1790 N   0  0  0  0  0  0  0  0  0  0  0  0
   -8.9250   15.8160   14.7910 C   0  0  0  0  0  0  0  0  0  0  0  0
   -7.2800   14.5280   15.4170 C   0  0  0  0  0  0  0  0  0  0  0  0
    0.8340   14.5060   14.0540 C   0  0  0  0  0  0  0  0  0  0  0  0
   -0.4690   12.8490   15.2120 C   0  0  0  0  0  0  0  0  0  0  0  0
  -10.6910   14.3110   14.4150 C   0  0  0  0  0  0  0  0  0  0  0  0
    1.9840   13.7730   14.3490 C   0  0  0  0  0  0  0  0  0  0  0  0
    1.9130   12.5740   15.0170 C   0  0  0  0  0  0  0  0  0  0  0  0
    0.5810   10.8160   16.1990 C   0  0  0  0  0  0  0  0  0  0  0  0
   -0.3400   10.6500   17.2040 C   0  0  0  0  0  0  0  0  0  0  0  0
    1.4260    9.7730   15.8770 C   0  0  0  0  0  0  0  0  0  0  0  0
   -6.8550   17.0560   15.3110 C   0  0  0  0  0  0  0  0  0  0  0  0
   -0.3790    9.4630   17.8980 C   0  0  0  0  0  0  0  0  0  0  0  0
   -2.7710   14.2600   14.5680 O   0  0  0  0  0  0  0  0  0  0  0  0
   -1.6990   14.7910   14.2890 C   0  0  0  0  0  0  0  0  0  0  0  0
   -0.4130   14.0460   14.5030 C   0  0  0  0  0  0  0  0  0  0  0  0
    0.9990   15.6560   13.3210 O   0  0  0  0  0  0  0  0  0  0  0  0
    3.1740   14.2350   13.8870 O   0  0  0  0  0  0  0  0  0  0  0  0
    0.6780   12.1020   15.4590 C   0  0  0  0  0  0  0  0  0  0  0  0
    1.3690    8.5680   16.5540 C   0  0  0  0  0  0  0  0  0  0  0  0
    0.4620    8.4240   17.5790 C   0  0  0  0  0  0  0  0  0  0  0  0
    0.4080    7.2430   18.2470 F   0  0  0  0  0  0  0  0  0  0  0  0
   -1.6290   16.0340   13.8390 N   0  0  0  0  0  0  0  0  0  0  0  0
   -2.8220   16.8750   13.6710 C   0  0  0  0  0  0  0  0  0  0  0  0
   -3.2060   17.5270   15.0220 C   0  0  0  0  0  0  0  0  0  0  0  0
   -4.5720   18.2230   14.9600 C   0  0  0  0  0  0  0  0  0  0  0  0
   -5.6200   17.2400   14.4360 C   0  0  0  0  0  0  0  0  0  0  0  0
   -7.6420   15.8090   15.1600 N   0  0  0  0  0  0  0  0  0  0  0  0
   -9.3790   14.5240   14.7970 C   0  0  0  0  0  0  0  0  0  0  0  0
  -11.1840   12.9260   14.4100 N   0  0  0  0  0  0  0  0  0  0  0  0
  -11.5200   15.3280   14.0700 N   0  0  0  0  0  0  0  0  0  0  0  0
  -11.0340   16.5700   14.0710 C   0  0  0  0  0  0  0  0  0  0  0  0
   -9.7720   16.8060   14.4290 N   0  0  0  0  0  0  0  0  0  0  0  0
   -6.2888   14.1960   15.7594 H   0  0  0  0  0  0  0  0  0  0  0  0
   -1.4389   12.4872   15.5839 H   0  0  0  0  0  0  0  0  0  0  0  0
    2.8263   11.9896   15.2020 H   0  0  0  0  0  0  0  0  0  0  0  0
   -1.0414   11.4602   17.4522 H   0  0  0  0  0  0  0  0  0  0  0  0
    2.1586    9.9025   15.0667 H   0  0  0  0  0  0  0  0  0  0  0  0
   -6.5229   17.1071   16.3584 H   0  0  0  0  0  0  0  0  0  0  0  0
   -7.5407   17.8518   14.9847 H   0  0  0  0  0  0  0  0  0  0  0  0
   -1.0964    9.3433   18.7233 H   0  0  0  0  0  0  0  0  0  0  0  0
    1.1234   16.5232   13.7820 H   0  0  0  0  0  0  0  0  0  0  0  0
    3.8799   14.5091   14.5247 H   0  0  0  0  0  0  0  0  0  0  0  0
    2.0372    7.7390   16.2778 H   0  0  0  0  0  0  0  0  0  0  0  0
   -0.7069   16.4248   13.5985 H   0  0  0  0  0  0  0  0  0  0  0  0
   -2.6109   17.6632   12.9333 H   0  0  0  0  0  0  0  0  0  0  0  0
   -3.6573   16.2504   13.3216 H   0  0  0  0  0  0  0  0  0  0  0  0
   -3.2409   16.7457   15.7956 H   0  0  0  0  0  0  0  0  0  0  0  0
   -2.4483   18.2888   15.2577 H   0  0  0  0  0  0  0  0  0  0  0  0
   -4.5120   19.0896   14.2852 H   0  0  0  0  0  0  0  0  0  0  0  0
   -4.8575   18.5622   15.9667 H   0  0  0  0  0  0  0  0  0  0  0  0
   -5.9548   17.5972   13.4510 H   0  0  0  0  0  0  0  0  0  0  0  0
   -5.1229   16.2590   14.4117 H   0  0  0  0  0  0  0  0  0  0  0  0
  -11.3577   12.4380   15.3002 H   0  0  0  0  0  0  0  0  0  0  0  0
  -11.3557   12.4437   13.5162 H   0  0  0  0  0  0  0  0  0  0  0  0
  -11.6813   17.4081   13.7733 H   0  0  0  0  0  0  0  0  0  0  0  0
 17  4  1  0
 24 23  1  0
 24 25  1  0
 23 15  1  0
 18  7  1  0
  4  7  2  0
  4 16  1  0
 31 32  2  0
 31  6  1  0
 32 33  1  0
 15 16  1  0
 15 14  2  0
  7  8  1  0
 30  6  1  0
  6 29  2  0
 33  2  2  0
 27 26  1  0
 27 12  1  0
 16  5  2  0
  2 29  1  0
  2 28  1  0
 29  1  1  0
 26 25  1  0
  8 19  2  0
 28 12  1  0
 28  3  1  0
  1  3  2  0
  5 19  1  0
 19  9  1  0
 11  9  1  0
 11 20  2  0
  9 10  2  0
 20 21  1  0
 10 13  1  0
 21 13  2  0
 21 22  1  0
  3 34  1  0
  5 35  1  0
  8 36  1  0
 10 37  1  0
 11 38  1  0
 12 39  1  0
 12 40  1  0
 13 41  1  0
 17 42  1  0
 18 43  1  0
 20 44  1  0
 23 45  1  0
 24 46  1  0
 24 47  1  0
 25 48  1  0
 25 49  1  0
 26 50  1  0
 26 51  1  0
 27 52  1  0
 27 53  1  0
 30 54  1  0
 30 55  1  0
 32 56  1  0
A    1
N3
A    2
C4
A    3
C6
A    4
C7
A    5
C8
A    6
C10
A    7
C13
A    8
C15
A    9
C17
A   10
C20
A   11
C21
A   12
C26
A   13
C28
A   14
O18
A   15
C9
A   16
C2
A   17
O23
A   18
O24
A   19
C12
A   20
C27
A   21
C25
A   22
F29
A   23
N19
A   24
C30
A   25
C32
A   26
C33
A   27
C31
A   28
N5
A   29
C1
A   30
N22
A   31
N14
A   32
C16
A   33
N11
M  END
