5P99_77M_A_303
     RDKit          3D

 52 54  0  0  0  0  0  0  0  0999 V2000
   -0.4490   12.8370   15.3310 C   0  0  0  0  0  0  0  0  0  0  0  0
   -0.3800   14.0570   14.6260 C   0  0  0  0  0  0  0  0  0  0  0  0
    0.8630   14.4990   14.1030 C   0  0  0  0  0  0  0  0  0  0  0  0
    0.5760   10.7940   16.2900 C   0  0  0  0  0  0  0  0  0  0  0  0
    1.4250    9.7480   15.9580 C   0  0  0  0  0  0  0  0  0  0  0  0
    0.4470    8.4180   17.6520 C   0  0  0  0  0  0  0  0  0  0  0  0
   -9.4420   21.3740   17.3140 C   0  0  0  0  0  0  0  0  0  0  0  0
   -9.2200   20.7650   18.5260 C   0  0  0  0  0  0  0  0  0  0  0  0
   -8.1040   19.9480   18.7240 C   0  0  0  0  0  0  0  0  0  0  0  0
   -7.4350   20.3340   16.4860 C   0  0  0  0  0  0  0  0  0  0  0  0
    1.9900   13.6920   14.3420 C   0  0  0  0  0  0  0  0  0  0  0  0
    1.8930   12.5350   15.0630 C   0  0  0  0  0  0  0  0  0  0  0  0
    0.6680   12.0530   15.5260 C   0  0  0  0  0  0  0  0  0  0  0  0
    1.3940    8.5460   16.6320 C   0  0  0  0  0  0  0  0  0  0  0  0
   -0.4290    9.4260   17.9850 C   0  0  0  0  0  0  0  0  0  0  0  0
   -0.3730   10.5880   17.2950 C   0  0  0  0  0  0  0  0  0  0  0  0
    0.4020    7.2270   18.3380 F   0  0  0  0  0  0  0  0  0  0  0  0
    3.1870   14.1690   13.8900 O   0  0  0  0  0  0  0  0  0  0  0  0
    1.0440   15.5950   13.3390 O   0  0  0  0  0  0  0  0  0  0  0  0
   -1.6110   14.8400   14.4190 C   0  0  0  0  0  0  0  0  0  0  0  0
   -1.5740   16.0520   13.9000 N   0  0  0  0  0  0  0  0  0  0  0  0
   -2.6980   14.3610   14.8130 O   0  0  0  0  0  0  0  0  0  0  0  0
   -8.5640   21.1510   16.2830 C   0  0  0  0  0  0  0  0  0  0  0  0
   -7.2020   19.7460   17.7260 C   0  0  0  0  0  0  0  0  0  0  0  0
   -6.4960   20.0630   15.3850 C   0  0  0  0  0  0  0  0  0  0  0  0
   -6.6980   20.5000   14.2440 O   0  0  0  0  0  0  0  0  0  0  0  0
   -5.4550   18.9840   15.6350 C   0  0  0  0  0  0  0  0  0  0  0  0
   -4.3860   18.8660   14.2060 S   0  0  0  0  0  0  0  0  0  0  0  0
   -3.1820   17.6810   14.9010 C   0  0  0  0  0  0  0  0  0  0  0  0
   -2.7760   16.8060   13.7310 C   0  0  0  0  0  0  0  0  0  0  0  0
   -7.8380   19.3400   19.9150 O   0  0  0  0  0  0  0  0  0  0  0  0
  -10.0880   20.9920   19.5580 O   0  0  0  0  0  0  0  0  0  0  0  0
   -1.4165   12.5036   15.7345 H   0  0  0  0  0  0  0  0  0  0  0  0
    2.1422    9.8816   15.1347 H   0  0  0  0  0  0  0  0  0  0  0  0
  -10.3122   22.0317   17.1722 H   0  0  0  0  0  0  0  0  0  0  0  0
    2.8082   11.9666   15.2850 H   0  0  0  0  0  0  0  0  0  0  0  0
    2.0822    7.7260   16.3790 H   0  0  0  0  0  0  0  0  0  0  0  0
   -1.1598    9.2894   18.7958 H   0  0  0  0  0  0  0  0  0  0  0  0
   -1.0901   11.3883   17.5300 H   0  0  0  0  0  0  0  0  0  0  0  0
    3.8845   14.4470   14.5352 H   0  0  0  0  0  0  0  0  0  0  0  0
    1.1896   16.4768   13.7649 H   0  0  0  0  0  0  0  0  0  0  0  0
   -0.6716   16.4582   13.6143 H   0  0  0  0  0  0  0  0  0  0  0  0
   -8.7419   21.6099   15.2992 H   0  0  0  0  0  0  0  0  0  0  0  0
   -6.3064   19.1303   17.8955 H   0  0  0  0  0  0  0  0  0  0  0  0
   -5.9563   18.0191   15.8015 H   0  0  0  0  0  0  0  0  0  0  0  0
   -4.8604   19.2395   16.5245 H   0  0  0  0  0  0  0  0  0  0  0  0
   -3.6473   17.0763   15.6934 H   0  0  0  0  0  0  0  0  0  0  0  0
   -2.3192   18.1874   15.3584 H   0  0  0  0  0  0  0  0  0  0  0  0
   -2.6446   17.4567   12.8539 H   0  0  0  0  0  0  0  0  0  0  0  0
   -3.5797   16.0626   13.6238 H   0  0  0  0  0  0  0  0  0  0  0  0
   -8.0416   19.8054   20.7647 H   0  0  0  0  0  0  0  0  0  0  0  0
   -9.7762   20.9105   20.4941 H   0  0  0  0  0  0  0  0  0  0  0  0
 19  3  1  0
 30 21  1  0
 30 29  1  0
 18 11  1  0
 21 20  1  0
  3 11  2  0
  3  2  1  0
 28 29  1  0
 28 27  1  0
 26 25  2  0
 11 12  1  0
 20  2  1  0
 20 22  2  0
  2  1  2  0
 12 13  2  0
  1 13  1  0
 25 27  1  0
 25 10  1  0
 13  4  1  0
  5  4  2  0
  5 14  1  0
 23 10  1  0
 23  7  2  0
  4 16  1  0
 10 24  2  0
 14  6  2  0
 16 15  2  0
  7  8  1  0
  6 15  1  0
  6 17  1  0
 24  9  1  0
  8  9  2  0
  8 32  1  0
  9 31  1  0
  1 33  1  0
  5 34  1  0
  7 35  1  0
 12 36  1  0
 14 37  1  0
 15 38  1  0
 16 39  1  0
 18 40  1  0
 19 41  1  0
 21 42  1  0
 23 43  1  0
 24 44  1  0
 27 45  1  0
 27 46  1  0
 29 47  1  0
 29 48  1  0
 30 49  1  0
 30 50  1  0
 31 51  1  0
 32 52  1  0
A    1
C4
A    2
C5
A    3
C6
A    4
C7
A    5
C8
A    6
C10
A    7
C20
A    8
C21
A    9
C22
A   10
C24
A   11
C1
A   12
C2
A   13
C3
A   14
C9
A   15
C11
A   16
C12
A   17
F13
A   18
O14
A   19
O15
A   20
C16
A   21
N17
A   22
O18
A   23
C19
A   24
C23
A   25
C25
A   26
O26
A   27
C27
A   28
S28
A   29
C29
A   30
C30
A   31
O31
A   32
O32
M  END
