5P9B_77P_A_304
     RDKit          3D

 47 49  0  0  0  0  0  0  0  0999 V2000
    1.3950    9.6960   15.8480 C   0  0  0  0  0  0  0  0  0  0  0  0
    0.5570   10.7100   16.2220 C   0  0  0  0  0  0  0  0  0  0  0  0
   -0.3750   10.5890   17.2390 C   0  0  0  0  0  0  0  0  0  0  0  0
    0.6750   12.0280   15.5000 C   0  0  0  0  0  0  0  0  0  0  0  0
    1.9420   12.4310   14.9680 C   0  0  0  0  0  0  0  0  0  0  0  0
    0.8250   14.4050   14.0240 C   0  0  0  0  0  0  0  0  0  0  0  0
   -6.5020   19.7130   16.3430 C   0  0  0  0  0  0  0  0  0  0  0  0
   -4.7910   19.0480   14.6210 C   0  0  0  0  0  0  0  0  0  0  0  0
   -8.1020   20.5260   14.3310 C   0  0  0  0  0  0  0  0  0  0  0  0
   -0.4450    9.3780   17.9100 C   0  0  0  0  0  0  0  0  0  0  0  0
    0.4080    8.3830   17.5450 C   0  0  0  0  0  0  0  0  0  0  0  0
    1.3350    8.4990   16.5290 C   0  0  0  0  0  0  0  0  0  0  0  0
    1.9820   13.6530   14.2830 C   0  0  0  0  0  0  0  0  0  0  0  0
   -0.4160   14.0070   14.5680 C   0  0  0  0  0  0  0  0  0  0  0  0
   -0.4460   12.7920   15.2640 C   0  0  0  0  0  0  0  0  0  0  0  0
    0.3370    7.1590   18.1910 F   0  0  0  0  0  0  0  0  0  0  0  0
   -1.6140   14.8200   14.3830 C   0  0  0  0  0  0  0  0  0  0  0  0
   -1.5620   16.0360   13.8510 N   0  0  0  0  0  0  0  0  0  0  0  0
   -2.6640   14.3390   14.8370 O   0  0  0  0  0  0  0  0  0  0  0  0
    1.0110   15.5210   13.3060 O   0  0  0  0  0  0  0  0  0  0  0  0
    3.2050   14.0570   13.8150 O   0  0  0  0  0  0  0  0  0  0  0  0
   -6.1420   19.5670   14.9890 C   0  0  0  0  0  0  0  0  0  0  0  0
   -6.9230   20.0300   13.9970 N   0  0  0  0  0  0  0  0  0  0  0  0
   -7.7680   20.2860   16.6030 C   0  0  0  0  0  0  0  0  0  0  0  0
   -4.3050   18.0190   15.3710 N   0  0  0  0  0  0  0  0  0  0  0  0
   -4.2110   19.6210   13.6740 O   0  0  0  0  0  0  0  0  0  0  0  0
   -8.5350   20.6570   15.5890 N   0  0  0  0  0  0  0  0  0  0  0  0
   -8.1880   20.3830   17.8680 O   0  0  0  0  0  0  0  0  0  0  0  0
   -2.9730   17.5150   15.1280 C   0  0  0  0  0  0  0  0  0  0  0  0
   -2.8060   16.8740   13.7380 C   0  0  0  0  0  0  0  0  0  0  0  0
    2.1043    9.8332   15.0185 H   0  0  0  0  0  0  0  0  0  0  0  0
   -1.0375   11.4257   17.5055 H   0  0  0  0  0  0  0  0  0  0  0  0
    2.8418   11.8104   15.0912 H   0  0  0  0  0  0  0  0  0  0  0  0
   -5.8323   19.3973   17.1565 H   0  0  0  0  0  0  0  0  0  0  0  0
   -8.7706   20.8523   13.5207 H   0  0  0  0  0  0  0  0  0  0  0  0
   -1.1739    9.2250   18.7195 H   0  0  0  0  0  0  0  0  0  0  0  0
    2.0035    7.6643   16.2714 H   0  0  0  0  0  0  0  0  0  0  0  0
   -1.4138   12.4298   15.6411 H   0  0  0  0  0  0  0  0  0  0  0  0
   -0.6629   16.4080   13.5132 H   0  0  0  0  0  0  0  0  0  0  0  0
    1.1552   16.3864   13.7647 H   0  0  0  0  0  0  0  0  0  0  0  0
    3.9248   14.2948   14.4518 H   0  0  0  0  0  0  0  0  0  0  0  0
   -4.8871   17.6008   16.1107 H   0  0  0  0  0  0  0  0  0  0  0  0
   -7.5528   20.2363   18.6131 H   0  0  0  0  0  0  0  0  0  0  0  0
   -2.7422   16.7574   15.8914 H   0  0  0  0  0  0  0  0  0  0  0  0
   -2.2873   18.3739   15.1741 H   0  0  0  0  0  0  0  0  0  0  0  0
   -2.6835   17.6480   12.9661 H   0  0  0  0  0  0  0  0  0  0  0  0
   -3.6837   16.2787   13.4460 H   0  0  0  0  0  0  0  0  0  0  0  0
 20  6  1  0
 26  8  2  0
 30 18  1  0
 30 29  1  0
 21 13  1  0
 18 17  1  0
 23  9  2  0
 23 22  1  0
  6 13  1  0
  6 14  2  0
 13  5  2  0
  9 27  1  0
 17 14  1  0
 17 19  2  0
 14 15  1  0
  8 22  1  0
  8 25  1  0
  5  4  1  0
 22  7  2  0
 29 25  1  0
 15  4  2  0
  4  2  1  0
 27 24  2  0
  1  2  2  0
  1 12  1  0
  2  3  1  0
  7 24  1  0
 12 11  2  0
 24 28  1  0
  3 10  2  0
 11 10  1  0
 11 16  1  0
  1 31  1  0
  3 32  1  0
  5 33  1  0
  7 34  1  0
  9 35  1  0
 10 36  1  0
 12 37  1  0
 15 38  1  0
 18 39  1  0
 20 40  1  0
 21 41  1  0
 25 42  1  0
 28 43  1  0
 29 44  1  0
 29 45  1  0
 30 46  1  0
 30 47  1  0
A    1
C4
A    2
C5
A    3
C6
A    4
C7
A    5
C8
A    6
C10
A    7
C20
A    8
C21
A    9
C26
A   10
C1
A   11
C2
A   12
C3
A   13
C9
A   14
C11
A   15
C12
A   16
F13
A   17
C14
A   18
N15
A   19
O16
A   20
O17
A   21
O18
A   22
C19
A   23
N22
A   24
C23
A   25
N24
A   26
O25
A   27
N27
A   28
O28
A   29
C29
A   30
C30
M  END
