5P9E_77S_A_304
     RDKit          3D

 53 56  0  0  0  0  0  0  0  0999 V2000
   -0.3550   12.7760   15.3070 C   0  0  0  0  0  0  0  0  0  0  0  0
   -0.2230   13.9810   14.6260 C   0  0  0  0  0  0  0  0  0  0  0  0
    1.0120   14.3590   14.1290 C   0  0  0  0  0  0  0  0  0  0  0  0
    0.6300   10.6580   16.1900 C   0  0  0  0  0  0  0  0  0  0  0  0
    1.4890    9.6170   15.8600 C   0  0  0  0  0  0  0  0  0  0  0  0
    0.4320    8.2380   17.5150 C   0  0  0  0  0  0  0  0  0  0  0  0
   -5.3380   23.1890   11.2580 C   0  0  0  0  0  0  0  0  0  0  0  0
   -5.1520   22.7070   12.5490 C   0  0  0  0  0  0  0  0  0  0  0  0
   -6.0310   21.7720   13.0810 C   0  0  0  0  0  0  0  0  0  0  0  0
   -7.2810   21.7940   11.0250 C   0  0  0  0  0  0  0  0  0  0  0  0
   -4.4200   20.7530   14.6550 C   0  0  0  0  0  0  0  0  0  0  0  0
   -2.5290   14.4360   14.6880 O   0  0  0  0  0  0  0  0  0  0  0  0
   -1.4140   14.8740   14.4610 C   0  0  0  0  0  0  0  0  0  0  0  0
    0.7510   11.9510   15.4730 C   0  0  0  0  0  0  0  0  0  0  0  0
   -0.3270   10.4940   17.1820 C   0  0  0  0  0  0  0  0  0  0  0  0
   -0.4260    9.2790   17.8460 C   0  0  0  0  0  0  0  0  0  0  0  0
    0.3420    7.0600   18.1540 F   0  0  0  0  0  0  0  0  0  0  0  0
    1.3890    8.4030   16.5240 C   0  0  0  0  0  0  0  0  0  0  0  0
    1.9880   12.3300   14.9690 C   0  0  0  0  0  0  0  0  0  0  0  0
    1.1710   15.5360   13.4590 O   0  0  0  0  0  0  0  0  0  0  0  0
    2.1090   13.5370   14.3010 C   0  0  0  0  0  0  0  0  0  0  0  0
    3.3170   13.9240   13.8010 O   0  0  0  0  0  0  0  0  0  0  0  0
   -1.2120   16.1370   14.0970 N   0  0  0  0  0  0  0  0  0  0  0  0
   -2.2210   17.1660   13.9090 C   0  0  0  0  0  0  0  0  0  0  0  0
   -1.9230   18.1290   15.0500 C   0  0  0  0  0  0  0  0  0  0  0  0
   -2.7180   19.3960   14.8970 C   0  0  0  0  0  0  0  0  0  0  0  0
   -2.2160   20.6470   14.8790 N   0  0  0  0  0  0  0  0  0  0  0  0
   -3.3060   21.5100   14.7230 N   0  0  0  0  0  0  0  0  0  0  0  0
   -4.0580   19.4610   14.7630 N   0  0  0  0  0  0  0  0  0  0  0  0
   -5.8350   21.2510   14.4870 C   0  0  0  0  0  0  0  0  0  0  0  0
   -7.0960   21.3160   12.3160 C   0  0  0  0  0  0  0  0  0  0  0  0
   -6.4050   22.7310   10.4950 C   0  0  0  0  0  0  0  0  0  0  0  0
   -1.3323   12.4764   15.7133 H   0  0  0  0  0  0  0  0  0  0  0  0
    2.2464    9.7550   15.0743 H   0  0  0  0  0  0  0  0  0  0  0  0
   -4.6416   23.9316   10.8415 H   0  0  0  0  0  0  0  0  0  0  0  0
   -4.3053   23.0676   13.1515 H   0  0  0  0  0  0  0  0  0  0  0  0
   -8.1245   21.4287   10.4208 H   0  0  0  0  0  0  0  0  0  0  0  0
   -1.0032   11.3222   17.4405 H   0  0  0  0  0  0  0  0  0  0  0  0
   -1.1824    9.1409   18.6327 H   0  0  0  0  0  0  0  0  0  0  0  0
    2.0655    7.5749   16.2659 H   0  0  0  0  0  0  0  0  0  0  0  0
    2.8639   11.6774   15.0991 H   0  0  0  0  0  0  0  0  0  0  0  0
    1.2851   16.3807   13.9625 H   0  0  0  0  0  0  0  0  0  0  0  0
    4.0550   14.1604   14.4171 H   0  0  0  0  0  0  0  0  0  0  0  0
   -0.2347   16.4162   13.9303 H   0  0  0  0  0  0  0  0  0  0  0  0
   -2.1089   17.6595   12.9323 H   0  0  0  0  0  0  0  0  0  0  0  0
   -3.2505   16.7787   13.9185 H   0  0  0  0  0  0  0  0  0  0  0  0
   -2.1865   17.6504   16.0047 H   0  0  0  0  0  0  0  0  0  0  0  0
   -0.8519   18.3790   15.0314 H   0  0  0  0  0  0  0  0  0  0  0  0
   -1.2250   20.9147   14.9635 H   0  0  0  0  0  0  0  0  0  0  0  0
   -6.0249   22.0611   15.2065 H   0  0  0  0  0  0  0  0  0  0  0  0
   -6.5356   20.4226   14.6684 H   0  0  0  0  0  0  0  0  0  0  0  0
   -7.7942   20.5752   12.7328 H   0  0  0  0  0  0  0  0  0  0  0  0
   -6.5551   23.1101    9.4734 H   0  0  0  0  0  0  0  0  0  0  0  0
 32 10  1  0
 32  7  2  0
 10 31  2  0
  7  8  1  0
 31  9  1  0
  8  9  2  0
  9 30  1  0
 20  3  1  0
 22 21  1  0
 24 23  1  0
 24 25  1  0
 23 13  1  0
  3 21  2  0
  3  2  1  0
 21 19  1  0
 13  2  1  0
 13 12  2  0
 30 11  1  0
  2  1  2  0
 11 28  2  0
 11 29  1  0
 28 27  1  0
 29 26  2  0
 27 26  1  0
 26 25  1  0
 19 14  2  0
  1 14  1  0
 14  4  1  0
  5  4  2  0
  5 18  1  0
  4 15  1  0
 18  6  2  0
 15 16  2  0
  6 16  1  0
  6 17  1  0
  1 33  1  0
  5 34  1  0
  7 35  1  0
  8 36  1  0
 10 37  1  0
 15 38  1  0
 16 39  1  0
 18 40  1  0
 19 41  1  0
 20 42  1  0
 22 43  1  0
 23 44  1  0
 24 45  1  0
 24 46  1  0
 25 47  1  0
 25 48  1  0
 27 49  1  0
 30 50  1  0
 30 51  1  0
 31 52  1  0
 32 53  1  0
A    1
C4
A    2
C5
A    3
C6
A    4
C7
A    5
C8
A    6
C10
A    7
C20
A    8
C21
A    9
C22
A   10
C24
A   11
C26
A   12
O18
A   13
C16
A   14
C3
A   15
C12
A   16
C11
A   17
F13
A   18
C9
A   19
C2
A   20
O15
A   21
C1
A   22
O14
A   23
N17
A   24
C32
A   25
C31
A   26
C29
A   27
N28
A   28
N27
A   29
N30
A   30
C25
A   31
C23
A   32
C19
M  END
