5P9G_7G6_A_701
     RDKit          3D

 80 86  0  0  0  0  0  0  0  0999 V2000
   21.8180   10.6770   10.7260 C   0  0  0  0  0  0  0  0  0  0  0  0
   22.0530   12.0070   10.3690 C   0  0  0  0  0  0  0  0  0  0  0  0
   22.4790   12.2700    9.0850 C   0  0  0  0  0  0  0  0  0  0  0  0
   23.1280   11.5680    6.7830 C   0  0  0  0  0  0  0  0  0  0  0  0
   23.2090   10.5610    5.8820 C   0  0  0  0  0  0  0  0  0  0  0  0
   22.7010    8.8410    7.4840 C   0  0  0  0  0  0  0  0  0  0  0  0
   23.1150    8.2750    5.1670 C   0  0  0  0  0  0  0  0  0  0  0  0
   21.8570   13.2330   11.2830 C   0  0  0  0  0  0  0  0  0  0  0  0
   20.4940   13.3270   11.9840 C   0  0  0  0  0  0  0  0  0  0  0  0
   21.7800   13.0650   12.7990 C   0  0  0  0  0  0  0  0  0  0  0  0
   23.2840    6.4200    3.0900 C   0  0  0  0  0  0  0  0  0  0  0  0
   24.4210    6.8300    3.7660 C   0  0  0  0  0  0  0  0  0  0  0  0
   24.3570    7.7450    4.8050 C   0  0  0  0  0  0  0  0  0  0  0  0
   20.6200    8.5270    4.7660 C   0  0  0  0  0  0  0  0  0  0  0  0
   20.8930    6.3940    2.5780 C   0  0  0  0  0  0  0  0  0  0  0  0
   18.7070    5.5170    2.4570 N   0  0  0  0  0  0  0  0  0  0  0  0
   18.8440    5.3500    1.1180 C   0  0  0  0  0  0  0  0  0  0  0  0
   21.0150    5.6650   -1.9040 C   0  0  0  0  0  0  0  0  0  0  0  0
   21.7240    5.3750   -4.1190 C   0  0  0  0  0  0  0  0  0  0  0  0
   22.9530    5.9590   -3.7890 C   0  0  0  0  0  0  0  0  0  0  0  0
   23.2120    6.3820   -2.4750 C   0  0  0  0  0  0  0  0  0  0  0  0
   22.0410    9.6350    9.8110 C   0  0  0  0  0  0  0  0  0  0  0  0
   22.5000    9.8880    8.5060 C   0  0  0  0  0  0  0  0  0  0  0  0
   22.6910   11.2490    8.1430 C   0  0  0  0  0  0  0  0  0  0  0  0
   22.9930    9.2530    6.2080 N   0  0  0  0  0  0  0  0  0  0  0  0
   22.5230    7.6390    7.7570 O   0  0  0  0  0  0  0  0  0  0  0  0
   21.8210    8.3550   10.1510 F   0  0  0  0  0  0  0  0  0  0  0  0
   21.9630    7.8980    4.4680 C   0  0  0  0  0  0  0  0  0  0  0  0
   22.0270    6.9100    3.4280 C   0  0  0  0  0  0  0  0  0  0  0  0
   19.9240    7.8900    5.8390 O   0  0  0  0  0  0  0  0  0  0  0  0
   19.7100    5.9940    3.1950 C   0  0  0  0  0  0  0  0  0  0  0  0
   20.0130    5.7300    0.4400 C   0  0  0  0  0  0  0  0  0  0  0  0
   21.0590    6.2620    1.1520 C   0  0  0  0  0  0  0  0  0  0  0  0
   19.9950    5.5110   -0.9660 N   0  0  0  0  0  0  0  0  0  0  0  0
   20.7620    5.2280   -3.1900 N   0  0  0  0  0  0  0  0  0  0  0  0
   22.2000    6.2190   -1.5240 C   0  0  0  0  0  0  0  0  0  0  0  0
   23.9490    6.1400   -4.7690 N   0  0  0  0  0  0  0  0  0  0  0  0
   25.2450    6.5970   -4.2210 C   0  0  0  0  0  0  0  0  0  0  0  0
   26.2800    6.6420   -5.3780 C   0  0  0  0  0  0  0  0  0  0  0  0
   25.7900    7.4130   -6.5670 N   0  0  0  0  0  0  0  0  0  0  0  0
   24.4270    7.0650   -7.0270 C   0  0  0  0  0  0  0  0  0  0  0  0
   23.5100    7.1440   -5.7810 C   0  0  0  0  0  0  0  0  0  0  0  0
   26.7830    7.4980   -7.6670 C   0  0  0  0  0  0  0  0  0  0  0  0
   17.4520    5.0750    3.0540 C   0  0  0  0  0  0  0  0  0  0  0  0
   17.9040    4.8660    0.4950 O   0  0  0  0  0  0  0  0  0  0  0  0
   21.4535   10.4427   11.7371 H   0  0  0  0  0  0  0  0  0  0  0  0
   22.6590   13.3136    8.7877 H   0  0  0  0  0  0  0  0  0  0  0  0
   23.3841   12.5997    6.5003 H   0  0  0  0  0  0  0  0  0  0  0  0
   23.4603   10.8078    4.8399 H   0  0  0  0  0  0  0  0  0  0  0  0
   22.4721   13.8732   10.6335 H   0  0  0  0  0  0  0  0  0  0  0  0
   19.9795   14.2961   12.0619 H   0  0  0  0  0  0  0  0  0  0  0  0
   19.5226   12.8227   11.8740 H   0  0  0  0  0  0  0  0  0  0  0  0
   21.9523   12.0777   13.2525 H   0  0  0  0  0  0  0  0  0  0  0  0
   22.2664   13.5456   13.6607 H   0  0  0  0  0  0  0  0  0  0  0  0
   23.3768    5.6928    2.2699 H   0  0  0  0  0  0  0  0  0  0  0  0
   25.3981    6.4197    3.4713 H   0  0  0  0  0  0  0  0  0  0  0  0
   25.2702    8.0498    5.3371 H   0  0  0  0  0  0  0  0  0  0  0  0
   20.7798    9.5825    5.0312 H   0  0  0  0  0  0  0  0  0  0  0  0
   20.0005    8.4159    3.8639 H   0  0  0  0  0  0  0  0  0  0  0  0
   21.5431    5.0328   -5.1486 H   0  0  0  0  0  0  0  0  0  0  0  0
   24.1802    6.8274   -2.2027 H   0  0  0  0  0  0  0  0  0  0  0  0
   20.2803    8.2161    6.7032 H   0  0  0  0  0  0  0  0  0  0  0  0
   19.6035    6.0713    4.2871 H   0  0  0  0  0  0  0  0  0  0  0  0
   21.9882    6.5756    0.6537 H   0  0  0  0  0  0  0  0  0  0  0  0
   19.0936    5.1908   -1.3478 H   0  0  0  0  0  0  0  0  0  0  0  0
   22.3588    6.5342   -0.4821 H   0  0  0  0  0  0  0  0  0  0  0  0
   25.5869    5.8974   -3.4441 H   0  0  0  0  0  0  0  0  0  0  0  0
   25.1345    7.5963   -3.7747 H   0  0  0  0  0  0  0  0  0  0  0  0
   26.4992    5.6113   -5.6936 H   0  0  0  0  0  0  0  0  0  0  0  0
   27.1776    7.1528   -4.9994 H   0  0  0  0  0  0  0  0  0  0  0  0
   24.0902    7.7792   -7.7928 H   0  0  0  0  0  0  0  0  0  0  0  0
   24.4025    6.0613   -7.4765 H   0  0  0  0  0  0  0  0  0  0  0  0
   23.5707    8.1524   -5.3458 H   0  0  0  0  0  0  0  0  0  0  0  0
   22.4724    6.9317   -6.0783 H   0  0  0  0  0  0  0  0  0  0  0  0
   27.7940    7.5845   -7.2424 H   0  0  0  0  0  0  0  0  0  0  0  0
   26.7220    6.5914   -8.2869 H   0  0  0  0  0  0  0  0  0  0  0  0
   26.5688    8.3811   -8.2869 H   0  0  0  0  0  0  0  0  0  0  0  0
   17.5369    5.1049    4.1503 H   0  0  0  0  0  0  0  0  0  0  0  0
   16.6379    5.7405    2.7310 H   0  0  0  0  0  0  0  0  0  0  0  0
   17.2346    4.0462    2.7310 H   0  0  0  0  0  0  0  0  0  0  0  0
 43 40  1  0
 41 40  1  0
 41 42  1  0
 40 39  1  0
 42 37  1  0
 39 38  1  0
 37 38  1  0
 37 20  1  0
 19 20  2  0
 19 35  1  0
 20 21  1  0
 35 18  2  0
 21 36  2  0
 18 36  1  0
 18 34  1  0
 34 32  1  0
 32 17  1  0
 32 33  2  0
 45 17  2  0
 17 16  1  0
 33 15  1  0
 16 44  1  0
 16 31  1  0
 15 31  2  0
 15 29  1  0
 11 29  2  0
 11 12  1  0
 29 28  1  0
 12 13  2  0
 28 14  1  0
 28  7  2  0
 14 30  1  0
 13  7  1  0
  7 25  1  0
  5 25  1  0
  5  4  2  0
 25  6  1  0
  4 24  1  0
  6 26  2  0
  6 23  1  0
 24 23  2  0
 24  3  1  0
 23 22  1  0
  3  2  2  0
 22 27  1  0
 22  1  2  0
  2  1  1  0
  2  8  1  0
  8  9  1  0
  8 10  1  0
  9 10  1  0
  1 46  1  0
  3 47  1  0
  4 48  1  0
  5 49  1  0
  8 50  1  0
  9 51  1  0
  9 52  1  0
 10 53  1  0
 10 54  1  0
 11 55  1  0
 12 56  1  0
 13 57  1  0
 14 58  1  0
 14 59  1  0
 19 60  1  0
 21 61  1  0
 30 62  1  0
 31 63  1  0
 33 64  1  0
 34 65  1  0
 36 66  1  0
 38 67  1  0
 38 68  1  0
 39 69  1  0
 39 70  1  0
 41 71  1  0
 41 72  1  0
 42 73  1  0
 42 74  1  0
 43 75  1  0
 43 76  1  0
 43 77  1  0
 44 78  1  0
 44 79  1  0
 44 80  1  0
A    1
C1
A    2
C2
A    3
C3
A    4
C7
A    5
C8
A    6
C10
A    7
C11
A    8
C13
A    9
C15
A   10
C16
A   11
C19
A   12
C20
A   13
C21
A   14
C22
A   15
C24
A   16
N26
A   17
C27
A   18
C31
A   19
C33
A   20
C34
A   21
C35
A   22
C4
A   23
C5
A   24
C6
A   25
N9
A   26
O12
A   27
F14
A   28
C17
A   29
C18
A   30
O23
A   31
C25
A   32
C28
A   33
C29
A   34
N30
A   35
N32
A   36
C36
A   37
N37
A   38
C38
A   39
C39
A   40
N40
A   41
C41
A   42
C42
A   43
C43
A   44
C44
A   45
O45
M  END
