5P9L_7G9_A_701
     RDKit          3D

 55 57  0  0  0  0  0  0  0  0999 V2000
  -18.6210    5.5070   -2.4660 C   0  0  0  0  0  0  0  0  0  0  0  0
  -17.6740    5.0750   -1.5940 C   0  0  0  0  0  0  0  0  0  0  0  0
  -20.6750    5.6580    2.0950 C   0  0  0  0  0  0  0  0  0  0  0  0
  -20.6440    5.3710    3.4440 C   0  0  0  0  0  0  0  0  0  0  0  0
  -21.7110    5.5770    4.2850 C   0  0  0  0  0  0  0  0  0  0  0  0
  -22.8430    6.1260    3.7660 C   0  0  0  0  0  0  0  0  0  0  0  0
  -22.9360    6.4310    2.4190 C   0  0  0  0  0  0  0  0  0  0  0  0
  -21.8310    6.2150    1.5790 C   0  0  0  0  0  0  0  0  0  0  0  0
  -25.1140    5.8070    4.3010 C   0  0  0  0  0  0  0  0  0  0  0  0
  -25.7910    6.9760    3.6220 C   0  0  0  0  0  0  0  0  0  0  0  0
  -26.7030    7.5310    4.5710 O   0  0  0  0  0  0  0  0  0  0  0  0
  -22.0420    7.0090   -2.5770 C   0  0  0  0  0  0  0  0  0  0  0  0
  -22.2100    8.4320   -2.6600 C   0  0  0  0  0  0  0  0  0  0  0  0
  -23.3240    9.1270   -2.1240 C   0  0  0  0  0  0  0  0  0  0  0  0
  -24.1150    6.9630   -1.3250 C   0  0  0  0  0  0  0  0  0  0  0  0
  -23.4030   10.5280   -2.1870 N   0  0  0  0  0  0  0  0  0  0  0  0
  -24.0920   11.4220   -1.3670 C   0  0  0  0  0  0  0  0  0  0  0  0
  -17.9950    4.9980   -0.2880 N   0  0  0  0  0  0  0  0  0  0  0  0
  -19.2100    5.3850    0.1120 C   0  0  0  0  0  0  0  0  0  0  0  0
  -20.1740    5.8910   -0.6800 N   0  0  0  0  0  0  0  0  0  0  0  0
  -19.9360    5.9640   -1.9920 C   0  0  0  0  0  0  0  0  0  0  0  0
  -19.4970    5.3530    1.4530 N   0  0  0  0  0  0  0  0  0  0  0  0
  -23.8530    6.3100    4.6790 O   0  0  0  0  0  0  0  0  0  0  0  0
  -26.3700    7.1650    5.9210 C   0  0  0  0  0  0  0  0  0  0  0  0
  -20.8370    6.4210   -2.9510 N   0  0  0  0  0  0  0  0  0  0  0  0
  -24.2700    8.3610   -1.4390 C   0  0  0  0  0  0  0  0  0  0  0  0
  -23.0060    6.3160   -1.8600 C   0  0  0  0  0  0  0  0  0  0  0  0
  -23.8330   12.9020   -1.5360 C   0  0  0  0  0  0  0  0  0  0  0  0
  -23.8310   13.8050   -0.5200 C   0  0  0  0  0  0  0  0  0  0  0  0
  -24.8780   11.1160   -0.4470 O   0  0  0  0  0  0  0  0  0  0  0  0
  -18.2900    5.5360   -3.7720 F   0  0  0  0  0  0  0  0  0  0  0  0
  -16.6699    4.7949   -1.9452 H   0  0  0  0  0  0  0  0  0  0  0  0
  -19.7178    4.9560    3.8681 H   0  0  0  0  0  0  0  0  0  0  0  0
  -21.6518    5.3054    5.3493 H   0  0  0  0  0  0  0  0  0  0  0  0
  -23.8707    6.8405    2.0083 H   0  0  0  0  0  0  0  0  0  0  0  0
  -21.8849    6.4879    0.5147 H   0  0  0  0  0  0  0  0  0  0  0  0
  -25.6857    5.4839    5.1835 H   0  0  0  0  0  0  0  0  0  0  0  0
  -25.0374    4.9262    3.6466 H   0  0  0  0  0  0  0  0  0  0  0  0
  -25.0441    7.7286    3.3292 H   0  0  0  0  0  0  0  0  0  0  0  0
  -26.3162    6.6538    2.7107 H   0  0  0  0  0  0  0  0  0  0  0  0
  -21.4298    9.0172   -3.1686 H   0  0  0  0  0  0  0  0  0  0  0  0
  -24.8847    6.3747   -0.8039 H   0  0  0  0  0  0  0  0  0  0  0  0
  -22.8714   10.9612   -2.9555 H   0  0  0  0  0  0  0  0  0  0  0  0
  -18.7222    5.0596    2.0649 H   0  0  0  0  0  0  0  0  0  0  0  0
  -26.9404    7.7919    6.6222 H   0  0  0  0  0  0  0  0  0  0  0  0
  -26.6218    6.1071    6.0868 H   0  0  0  0  0  0  0  0  0  0  0  0
  -25.2931    7.3160    6.0868 H   0  0  0  0  0  0  0  0  0  0  0  0
  -20.6085    6.3225   -3.9505 H   0  0  0  0  0  0  0  0  0  0  0  0
  -25.1433    8.8517   -0.9845 H   0  0  0  0  0  0  0  0  0  0  0  0
  -22.8911    5.2322   -1.7113 H   0  0  0  0  0  0  0  0  0  0  0  0
  -22.8384   12.9769   -1.9999 H   0  0  0  0  0  0  0  0  0  0  0  0
  -24.7410   13.2068   -2.0770 H   0  0  0  0  0  0  0  0  0  0  0  0
  -23.8322   13.2734    0.4430 H   0  0  0  0  0  0  0  0  0  0  0  0
  -22.9315   14.4342   -0.5904 H   0  0  0  0  0  0  0  0  0  0  0  0
  -24.7277   14.4382   -0.5904 H   0  0  0  0  0  0  0  0  0  0  0  0
 31  1  1  0
 25 12  1  0
 25 21  1  0
 13 12  2  0
 13 14  1  0
 12 27  1  0
  1 21  2  0
  1  2  1  0
 16 14  1  0
 16 17  1  0
 14 26  2  0
 21 20  1  0
 27 15  2  0
  2 18  2  0
 28 17  1  0
 28 29  1  0
 26 15  1  0
 17 30  2  0
 20 19  2  0
 18 19  1  0
 19 22  1  0
 22  3  1  0
  8  3  1  0
  8  7  2  0
  3  4  2  0
  7  6  1  0
  4  5  1  0
 10  9  1  0
 10 11  1  0
  6  5  2  0
  6 23  1  0
  9 23  1  0
 11 24  1  0
  2 32  1  0
  4 33  1  0
  5 34  1  0
  7 35  1  0
  8 36  1  0
  9 37  1  0
  9 38  1  0
 10 39  1  0
 10 40  1  0
 13 41  1  0
 15 42  1  0
 16 43  1  0
 22 44  1  0
 24 45  1  0
 24 46  1  0
 24 47  1  0
 25 48  1  0
 26 49  1  0
 27 50  1  0
 28 51  1  0
 28 52  1  0
 29 53  1  0
 29 54  1  0
 29 55  1  0
A    1
C1
A    2
C2
A    3
C8
A    4
C9
A    5
C10
A    6
C11
A    7
C12
A    8
C13
A    9
C15
A   10
C16
A   11
O17
A   12
C20
A   13
C21
A   14
C22
A   15
C24
A   16
N26
A   17
C27
A   18
N3
A   19
C4
A   20
N5
A   21
C6
A   22
N7
A   23
O14
A   24
C18
A   25
N19
A   26
C23
A   27
C25
A   28
C28
A   29
C29
A   30
O30
A   31
F31
M  END
