5P9O_7JF_A_301
     RDKit          3D

 38 41  0  0  0  0  0  0  0  0999 V2000
   -4.0600   16.3700   24.1220 C   0  0  0  0  0  0  0  0  0  0  0  0
    0.8590   12.7640   26.5630 C   0  0  0  0  0  0  0  0  0  0  0  0
   -1.5620   12.4160   26.5010 C   0  0  0  0  0  0  0  0  0  0  0  0
    0.1140   16.5470   23.1390 C   0  0  0  0  0  0  0  0  0  0  0  0
    0.6380   18.8780   23.0270 C   0  0  0  0  0  0  0  0  0  0  0  0
    1.1410   17.6400   24.9920 C   0  0  0  0  0  0  0  0  0  0  0  0
    1.8590   14.6880   25.6020 C   0  0  0  0  0  0  0  0  0  0  0  0
    0.6610   15.1890   25.1590 C   0  0  0  0  0  0  0  0  0  0  0  0
   -0.5060   14.4450   25.4020 C   0  0  0  0  0  0  0  0  0  0  0  0
    2.0290   13.4870   26.2870 C   0  0  0  0  0  0  0  0  0  0  0  0
    3.1900   13.0380   26.7570 O   0  0  0  0  0  0  0  0  0  0  0  0
    3.0070   15.3690   25.3840 F   0  0  0  0  0  0  0  0  0  0  0  0
   -1.7950   15.0300   24.9540 C   0  0  0  0  0  0  0  0  0  0  0  0
   -2.4980   14.5920   23.8590 C   0  0  0  0  0  0  0  0  0  0  0  0
   -3.6370   15.2580   23.4520 C   0  0  0  0  0  0  0  0  0  0  0  0
   -3.3770   16.8480   25.2390 C   0  0  0  0  0  0  0  0  0  0  0  0
   -2.2830   16.1580   25.6280 C   0  0  0  0  0  0  0  0  0  0  0  0
   -5.1540   17.0660   23.6970 F   0  0  0  0  0  0  0  0  0  0  0  0
    0.6330   16.4670   24.4200 C   0  0  0  0  0  0  0  0  0  0  0  0
   -0.4140   13.1940   26.1050 C   0  0  0  0  0  0  0  0  0  0  0  0
   -1.2660   11.2740   27.1840 N   0  0  0  0  0  0  0  0  0  0  0  0
   -0.0310   10.8820   27.5570 C   0  0  0  0  0  0  0  0  0  0  0  0
    1.0260   11.6050   27.3080 N   0  0  0  0  0  0  0  0  0  0  0  0
   -2.7450   12.6970   26.3030 O   0  0  0  0  0  0  0  0  0  0  0  0
    0.1290   17.7210   22.4550 C   0  0  0  0  0  0  0  0  0  0  0  0
    1.1400   18.8520   24.2960 C   0  0  0  0  0  0  0  0  0  0  0  0
    0.6300   20.0290   22.3470 F   0  0  0  0  0  0  0  0  0  0  0  0
   -0.3155   15.6497   22.6695 H   0  0  0  0  0  0  0  0  0  0  0  0
    1.5502   17.6067   26.0125 H   0  0  0  0  0  0  0  0  0  0  0  0
    3.3395   12.9802   27.7339 H   0  0  0  0  0  0  0  0  0  0  0  0
   -2.1526   13.7073   23.3040 H   0  0  0  0  0  0  0  0  0  0  0  0
   -4.2057   14.8914   22.5848 H   0  0  0  0  0  0  0  0  0  0  0  0
   -3.7133   17.7456   25.7787 H   0  0  0  0  0  0  0  0  0  0  0  0
   -1.7447   16.5005   26.5241 H   0  0  0  0  0  0  0  0  0  0  0  0
   -2.0523   10.6585   27.4365 H   0  0  0  0  0  0  0  0  0  0  0  0
    0.0887    9.9252   28.0864 H   0  0  0  0  0  0  0  0  0  0  0  0
   -0.2693   17.7547   21.4302 H   0  0  0  0  0  0  0  0  0  0  0  0
    1.5358   19.7666   24.7616 H   0  0  0  0  0  0  0  0  0  0  0  0
 27  5  1  0
 25  5  1  0
 25  4  2  0
  5 26  2  0
  4 19  1  0
 15 14  1  0
 15  1  2  0
 18  1  1  0
 14 13  2  0
  1 16  1  0
 26  6  1  0
 19  6  2  0
 19  8  1  0
 13  9  1  0
 13 17  1  0
  8  9  1  0
  8  7  2  0
 16 17  2  0
 12  7  1  0
  9 20  2  0
  7 10  1  0
 20  3  1  0
 20  2  1  0
 10  2  2  0
 10 11  1  0
 24  3  2  0
  3 21  1  0
  2 23  1  0
 21 22  1  0
 23 22  2  0
  4 28  1  0
  6 29  1  0
 11 30  1  0
 14 31  1  0
 15 32  1  0
 16 33  1  0
 17 34  1  0
 21 35  1  0
 22 36  1  0
 25 37  1  0
 26 38  1  0
A    1
C10
A    2
C15
A    3
C17
A    4
C22
A    5
C24
A    6
C26
A    7
C01
A    8
C02
A    9
C03
A   10
C04
A   11
O05
A   12
F06
A   13
C07
A   14
C08
A   15
C09
A   16
C11
A   17
C12
A   18
F13
A   19
C14
A   20
C16
A   21
N18
A   22
C19
A   23
N20
A   24
O21
A   25
C23
A   26
C25
A   27
F27
M  END
