5P9Q_7JH_A_306
     RDKit          3D

 30 32  0  0  0  0  0  0  0  0999 V2000
    0.6350   15.0160   24.9860 C   0  0  0  0  0  0  0  0  0  0  0  0
    1.8640   14.5880   25.4820 C   0  0  0  0  0  0  0  0  0  0  0  0
    1.9470   13.3780   26.2430 C   0  0  0  0  0  0  0  0  0  0  0  0
   -0.1220   10.7600   27.5080 C   0  0  0  0  0  0  0  0  0  0  0  0
   -1.6170   12.3170   26.4110 C   0  0  0  0  0  0  0  0  0  0  0  0
   -1.1880   15.7480   22.3800 C   0  0  0  0  0  0  0  0  0  0  0  0
    0.8060   12.6450   26.5510 C   0  0  0  0  0  0  0  0  0  0  0  0
   -0.4320   13.1100   26.0580 C   0  0  0  0  0  0  0  0  0  0  0  0
   -0.4990   14.3060   25.3050 C   0  0  0  0  0  0  0  0  0  0  0  0
    0.9610   11.4630   27.2910 N   0  0  0  0  0  0  0  0  0  0  0  0
   -1.3750   11.1400   27.1500 N   0  0  0  0  0  0  0  0  0  0  0  0
   -2.7830   12.6380   26.1610 O   0  0  0  0  0  0  0  0  0  0  0  0
    0.5340   16.3110   24.2300 C   0  0  0  0  0  0  0  0  0  0  0  0
    1.4350   17.6320   24.7190 S   0  0  0  0  0  0  0  0  0  0  0  0
   -0.2580   16.6340   23.1190 C   0  0  0  0  0  0  0  0  0  0  0  0
   -0.0800   17.9500   22.6890 N   0  0  0  0  0  0  0  0  0  0  0  0
    0.7760   18.6060   23.4450 C   0  0  0  0  0  0  0  0  0  0  0  0
    1.1920   20.0220   23.2910 C   0  0  0  0  0  0  0  0  0  0  0  0
    3.1610   12.9840   26.6790 O   0  0  0  0  0  0  0  0  0  0  0  0
    2.7711   15.1796   25.2891 H   0  0  0  0  0  0  0  0  0  0  0  0
   -0.0083    9.7916   28.0171 H   0  0  0  0  0  0  0  0  0  0  0  0
   -1.7926   15.1720   23.0961 H   0  0  0  0  0  0  0  0  0  0  0  0
   -1.8504   16.3574   21.7477 H   0  0  0  0  0  0  0  0  0  0  0  0
   -0.6114   15.0569   21.7477 H   0  0  0  0  0  0  0  0  0  0  0  0
   -1.4785   14.6758   24.9676 H   0  0  0  0  0  0  0  0  0  0  0  0
   -2.1735   10.5510   27.4264 H   0  0  0  0  0  0  0  0  0  0  0  0
    1.3251   20.4752   24.2844 H   0  0  0  0  0  0  0  0  0  0  0  0
    2.1414   20.0671   22.7372 H   0  0  0  0  0  0  0  0  0  0  0  0
    0.4179   20.5734   22.7372 H   0  0  0  0  0  0  0  0  0  0  0  0
    3.3429   12.9250   27.6503 H   0  0  0  0  0  0  0  0  0  0  0  0
  6 15  1  0
 16 15  1  0
 16 17  2  0
 15 13  2  0
 18 17  1  0
 17 14  1  0
 13 14  1  0
 13  1  1  0
  1  9  1  0
  1  2  2  0
  9  8  2  0
  2  3  1  0
  8  5  1  0
  8  7  1  0
 12  5  2  0
  3  7  2  0
  3 19  1  0
  5 11  1  0
  7 10  1  0
 11  4  1  0
 10  4  2  0
  2 20  1  0
  4 21  1  0
  6 22  1  0
  6 23  1  0
  6 24  1  0
  9 25  1  0
 11 26  1  0
 18 27  1  0
 18 28  1  0
 18 29  1  0
 19 30  1  0
A    1
C4
A    2
C5
A    3
C6
A    4
C8
A    5
C10
A    6
C17
A    7
C1
A    8
C2
A    9
C3
A   10
N7
A   11
N9
A   12
O11
A   13
C12
A   14
S13
A   15
C14
A   16
N15
A   17
C16
A   18
C18
A   19
O19
M  END
