5P9S_7JK_A_303
     RDKit          3D

 47 50  0  0  0  0  0  0  0  0999 V2000
   29.0960  -30.3280    2.4810 C   0  0  0  0  0  0  0  0  0  0  0  0
   26.7860  -30.8220    5.4250 C   0  0  0  0  0  0  0  0  0  0  0  0
   26.2160  -29.5880    5.0640 C   0  0  0  0  0  0  0  0  0  0  0  0
   26.4000  -31.6900    6.5510 C   0  0  0  0  0  0  0  0  0  0  0  0
   24.2560  -26.6790    6.4940 C   0  0  0  0  0  0  0  0  0  0  0  0
   23.0190  -28.7410    6.8630 C   0  0  0  0  0  0  0  0  0  0  0  0
   30.5110  -30.9680    4.3100 C   0  0  0  0  0  0  0  0  0  0  0  0
   31.5700  -30.0910    2.3110 C   0  0  0  0  0  0  0  0  0  0  0  0
   28.0560  -30.2280    3.5370 C   0  0  0  0  0  0  0  0  0  0  0  0
   27.8500  -31.1860    4.5310 C   0  0  0  0  0  0  0  0  0  0  0  0
   26.9870  -28.9630    3.7250 S   0  0  0  0  0  0  0  0  0  0  0  0
   28.8430  -30.0550    1.2860 O   0  0  0  0  0  0  0  0  0  0  0  0
   25.1440  -28.8370    5.7050 C   0  0  0  0  0  0  0  0  0  0  0  0
   20.9130  -28.6540    8.1130 N   0  0  0  0  0  0  0  0  0  0  0  0
   24.4630  -25.3210    6.5750 O   0  0  0  0  0  0  0  0  0  0  0  0
   25.2580  -27.4310    5.8500 C   0  0  0  0  0  0  0  0  0  0  0  0
   24.0150  -29.4920    6.2370 C   0  0  0  0  0  0  0  0  0  0  0  0
   23.1060  -27.3240    7.0140 C   0  0  0  0  0  0  0  0  0  0  0  0
   22.1030  -26.6010    7.6780 N   0  0  0  0  0  0  0  0  0  0  0  0
   21.1070  -27.2780    8.2070 C   0  0  0  0  0  0  0  0  0  0  0  0
   21.8480  -29.4480    7.4140 C   0  0  0  0  0  0  0  0  0  0  0  0
   21.6860  -30.6770    7.3200 O   0  0  0  0  0  0  0  0  0  0  0  0
   30.3860  -30.7120    2.8830 N   0  0  0  0  0  0  0  0  0  0  0  0
   31.8460  -31.5960    4.7500 C   0  0  0  0  0  0  0  0  0  0  0  0
   32.9950  -30.8630    4.2330 N   0  0  0  0  0  0  0  0  0  0  0  0
   32.9240  -30.6850    2.7830 C   0  0  0  0  0  0  0  0  0  0  0  0
   34.2460  -31.4270    4.6900 C   0  0  0  0  0  0  0  0  0  0  0  0
   26.6260  -31.1817    7.5000 H   0  0  0  0  0  0  0  0  0  0  0  0
   25.3222  -31.9032    6.4969 H   0  0  0  0  0  0  0  0  0  0  0  0
   26.9635  -32.6331    6.4969 H   0  0  0  0  0  0  0  0  0  0  0  0
   30.3950  -30.0104    4.8387 H   0  0  0  0  0  0  0  0  0  0  0  0
   29.7319  -31.7042    4.5569 H   0  0  0  0  0  0  0  0  0  0  0  0
   31.5560  -29.0237    2.5768 H   0  0  0  0  0  0  0  0  0  0  0  0
   31.5176  -30.2762    1.2280 H   0  0  0  0  0  0  0  0  0  0  0  0
   28.4352  -32.1132    4.6196 H   0  0  0  0  0  0  0  0  0  0  0  0
   20.0900  -29.0909    8.5520 H   0  0  0  0  0  0  0  0  0  0  0  0
   24.5299  -24.8824    7.4600 H   0  0  0  0  0  0  0  0  0  0  0  0
   26.1458  -26.9178    5.4520 H   0  0  0  0  0  0  0  0  0  0  0  0
   23.9198  -30.5851    6.1595 H   0  0  0  0  0  0  0  0  0  0  0  0
   20.3593  -26.7053    8.7753 H   0  0  0  0  0  0  0  0  0  0  0  0
   31.8900  -32.6309    4.3798 H   0  0  0  0  0  0  0  0  0  0  0  0
   31.8898  -31.5622    5.8486 H   0  0  0  0  0  0  0  0  0  0  0  0
   33.0638  -31.6645    2.3022 H   0  0  0  0  0  0  0  0  0  0  0  0
   33.7127  -29.9725    2.4997 H   0  0  0  0  0  0  0  0  0  0  0  0
   34.2644  -31.4353    5.7898 H   0  0  0  0  0  0  0  0  0  0  0  0
   34.3434  -32.4561    4.3139 H   0  0  0  0  0  0  0  0  0  0  0  0
   35.0816  -30.8185    4.3139 H   0  0  0  0  0  0  0  0  0  0  0  0
 12  1  2  0
  8 26  1  0
  8 23  1  0
  1 23  1  0
  1  9  1  0
 26 25  1  0
 23  7  1  0
  9 11  1  0
  9 10  2  0
 11  3  1  0
 25 27  1  0
 25 24  1  0
  7 24  1  0
 10  2  1  0
  3  2  2  0
  3 13  1  0
  2  4  1  0
 13 16  1  0
 13 17  2  0
 16  5  2  0
 17  6  1  0
  5 15  1  0
  5 18  1  0
  6 18  2  0
  6 21  1  0
 18 19  1  0
 22 21  2  0
 21 14  1  0
 19 20  2  0
 14 20  1  0
  4 28  1  0
  4 29  1  0
  4 30  1  0
  7 31  1  0
  7 32  1  0
  8 33  1  0
  8 34  1  0
 10 35  1  0
 14 36  1  0
 15 37  1  0
 16 38  1  0
 17 39  1  0
 20 40  1  0
 24 41  1  0
 24 42  1  0
 26 43  1  0
 26 44  1  0
 27 45  1  0
 27 46  1  0
 27 47  1  0
A    1
C4
A    2
C5
A    3
C6
A    4
C8
A    5
C13
A    6
C15
A    7
C22
A    8
C26
A    9
C1
A   10
C2
A   11
S3
A   12
O7
A   13
C9
A   14
N10
A   15
O11
A   16
C12
A   17
C14
A   18
C16
A   19
N17
A   20
C18
A   21
C19
A   22
O20
A   23
N21
A   24
C23
A   25
N24
A   26
C25
A   27
C27
M  END
