5P9T_7JD_A_304
     RDKit          3D

 28 30  0  0  0  0  0  0  0  0999 V2000
    2.1250   13.4550   26.2930 C   0  0  0  0  0  0  0  0  0  0  0  0
    0.6980   16.3980   24.3590 C   0  0  0  0  0  0  0  0  0  0  0  0
    1.4860   17.5120   24.6940 C   0  0  0  0  0  0  0  0  0  0  0  0
    1.4410   18.6810   23.9540 C   0  0  0  0  0  0  0  0  0  0  0  0
    0.6130   18.7610   22.8930 C   0  0  0  0  0  0  0  0  0  0  0  0
   -0.2040   16.5800   23.2900 C   0  0  0  0  0  0  0  0  0  0  0  0
   -0.2970   13.2250   26.1330 C   0  0  0  0  0  0  0  0  0  0  0  0
   -0.4020   14.4580   25.3870 C   0  0  0  0  0  0  0  0  0  0  0  0
    0.7730   15.1460   25.1310 C   0  0  0  0  0  0  0  0  0  0  0  0
    2.0740   14.6280   25.5740 C   0  0  0  0  0  0  0  0  0  0  0  0
   -0.2670   17.7180   22.5320 C   0  0  0  0  0  0  0  0  0  0  0  0
    0.5610   19.9040   22.1760 F   0  0  0  0  0  0  0  0  0  0  0  0
    3.2840   13.0000   26.7260 O   0  0  0  0  0  0  0  0  0  0  0  0
    0.9520   12.7700   26.5530 C   0  0  0  0  0  0  0  0  0  0  0  0
    1.0720   11.5650   27.2850 N   0  0  0  0  0  0  0  0  0  0  0  0
   -0.0420   10.8740   27.5190 C   0  0  0  0  0  0  0  0  0  0  0  0
   -1.2740   11.2720   27.1570 N   0  0  0  0  0  0  0  0  0  0  0  0
   -1.5080   12.4490   26.4470 C   0  0  0  0  0  0  0  0  0  0  0  0
   -2.6600   12.7870   26.2450 O   0  0  0  0  0  0  0  0  0  0  0  0
    2.1548   17.4538   25.5654 H   0  0  0  0  0  0  0  0  0  0  0  0
    2.0750   19.5368   24.2291 H   0  0  0  0  0  0  0  0  0  0  0  0
   -0.8971   15.7597   23.0516 H   0  0  0  0  0  0  0  0  0  0  0  0
   -1.3744   14.8347   25.0369 H   0  0  0  0  0  0  0  0  0  0  0  0
    2.9992   15.1723   25.3335 H   0  0  0  0  0  0  0  0  0  0  0  0
   -0.9653   17.8145   21.6876 H   0  0  0  0  0  0  0  0  0  0  0  0
    3.4571   12.9321   27.6984 H   0  0  0  0  0  0  0  0  0  0  0  0
    0.0523    9.9121   28.0442 H   0  0  0  0  0  0  0  0  0  0  0  0
   -2.0786   10.6829   27.4149 H   0  0  0  0  0  0  0  0  0  0  0  0
 12  5  1  0
 11  5  2  0
 11  6  1  0
  5  4  1  0
  6  2  2  0
  4  3  2  0
  2  3  1  0
  2  9  1  0
  9  8  2  0
  9 10  1  0
  8  7  1  0
 10  1  2  0
  7 18  1  0
  7 14  2  0
 19 18  2  0
  1 14  1  0
  1 13  1  0
 18 17  1  0
 14 15  1  0
 17 16  1  0
 15 16  2  0
  3 20  1  0
  4 21  1  0
  6 22  1  0
  8 23  1  0
 10 24  1  0
 11 25  1  0
 13 26  1  0
 16 27  1  0
 17 28  1  0
A    1
C4
A    2
C5
A    3
C6
A    4
C7
A    5
C8
A    6
C10
A    7
C13
A    8
C1
A    9
C2
A   10
C3
A   11
C9
A   12
F11
A   13
O12
A   14
C14
A   15
N15
A   16
C16
A   17
N17
A   18
C18
A   19
O19
M  END
