5P9U_7JL_A_303
     RDKit          3D

 18 19  0  0  0  0  0  0  0  0999 V2000
   35.3560   -8.0580   -6.1250 C   0  0  0  0  0  0  0  0  0  0  0  0
   36.4560   -5.9790   -6.5650 C   0  0  0  0  0  0  0  0  0  0  0  0
   35.3030   -6.8130   -6.7530 C   0  0  0  0  0  0  0  0  0  0  0  0
   34.2250   -5.1820   -8.0800 C   0  0  0  0  0  0  0  0  0  0  0  0
   37.5000   -6.4380   -5.8060 C   0  0  0  0  0  0  0  0  0  0  0  0
   37.4660   -7.7030   -5.2010 C   0  0  0  0  0  0  0  0  0  0  0  0
   36.3490   -8.5410   -5.3100 C   0  0  0  0  0  0  0  0  0  0  0  0
   38.8300   -8.3490   -4.1160 Br  0  0  0  0  0  0  0  0  0  0  0  0
   34.1930   -8.7870   -6.3540 O   0  0  0  0  0  0  0  0  0  0  0  0
   34.2270   -6.3510   -7.5110 N   0  0  0  0  0  0  0  0  0  0  0  0
   35.3350   -4.2750   -7.9140 N   0  0  0  0  0  0  0  0  0  0  0  0
   36.4170   -4.6930   -7.1940 C   0  0  0  0  0  0  0  0  0  0  0  0
   37.3320   -3.8290   -7.0350 O   0  0  0  0  0  0  0  0  0  0  0  0
   33.3654   -4.8802   -8.6964 H   0  0  0  0  0  0  0  0  0  0  0  0
   38.3853   -5.7999   -5.6678 H   0  0  0  0  0  0  0  0  0  0  0  0
   36.2739   -9.5054   -4.7863 H   0  0  0  0  0  0  0  0  0  0  0  0
   33.6598   -9.1213   -5.5898 H   0  0  0  0  0  0  0  0  0  0  0  0
   35.3115   -3.3329   -8.3296 H   0  0  0  0  0  0  0  0  0  0  0  0
  4 11  1  0
  4 10  2  0
 11 12  1  0
 10  3  1  0
 12 13  2  0
 12  2  1  0
  3  2  1  0
  3  1  2  0
  2  5  2  0
  9  1  1  0
  1  7  1  0
  5  6  1  0
  7  6  2  0
  6  8  1  0
  4 14  1  0
  5 15  1  0
  7 16  1  0
  9 17  1  0
 11 18  1  0
A    1
C4
A    2
C7
A    3
C8
A    4
C10
A    5
C1
A    6
C2
A    7
C3
A    8
BR5
A    9
O6
A   10
N9
A   11
N11
A   12
C12
A   13
O13
M  END
