5P9W_7JN_A_304
     RDKit          3D

 66 71  0  0  0  0  0  0  0  0999 V2000
   -6.1540   21.1860   12.9600 N   0  0  0  0  0  0  0  0  0  0  0  0
   -7.1700   21.6270   11.0730 C   0  0  0  0  0  0  0  0  0  0  0  0
   -0.3700   13.9700   14.5740 C   0  0  0  0  0  0  0  0  0  0  0  0
   -6.6850   20.0870   12.4800 C   0  0  0  0  0  0  0  0  0  0  0  0
   -4.9540   19.2930   15.3500 C   0  0  0  0  0  0  0  0  0  0  0  0
    0.8300   14.4440   14.0910 C   0  0  0  0  0  0  0  0  0  0  0  0
   -1.6780   14.6630   14.3510 C   0  0  0  0  0  0  0  0  0  0  0  0
    0.7880   12.0290   15.4640 C   0  0  0  0  0  0  0  0  0  0  0  0
    2.0320   13.7780   14.3400 C   0  0  0  0  0  0  0  0  0  0  0  0
   -2.8020   16.7200   13.5950 C   0  0  0  0  0  0  0  0  0  0  0  0
    0.5700    7.2230   18.3470 F   0  0  0  0  0  0  0  0  0  0  0  0
    0.6060    8.3660   17.6230 C   0  0  0  0  0  0  0  0  0  0  0  0
   -0.2090    9.3880   18.0140 C   0  0  0  0  0  0  0  0  0  0  0  0
   -0.1970   10.5740   17.3120 C   0  0  0  0  0  0  0  0  0  0  0  0
    1.5160    8.4940   16.6080 C   0  0  0  0  0  0  0  0  0  0  0  0
    1.5400    9.6910   15.8880 C   0  0  0  0  0  0  0  0  0  0  0  0
    0.6980   10.7280   16.2580 C   0  0  0  0  0  0  0  0  0  0  0  0
    2.0070   12.5740   15.0210 C   0  0  0  0  0  0  0  0  0  0  0  0
    3.2520   14.2470   13.8760 O   0  0  0  0  0  0  0  0  0  0  0  0
    1.0010   15.5980   13.3810 O   0  0  0  0  0  0  0  0  0  0  0  0
   -0.3720   12.7470   15.2720 C   0  0  0  0  0  0  0  0  0  0  0  0
   -2.7600   14.1450   14.6580 O   0  0  0  0  0  0  0  0  0  0  0  0
   -1.6260   15.9140   13.8460 N   0  0  0  0  0  0  0  0  0  0  0  0
   -3.2720   17.4730   14.8310 C   0  0  0  0  0  0  0  0  0  0  0  0
   -4.2720   16.8020   15.7770 C   0  0  0  0  0  0  0  0  0  0  0  0
   -4.7430   17.8970   14.8230 C   0  0  0  0  0  0  0  0  0  0  0  0
   -4.5310   20.2550   14.3650 O   0  0  0  0  0  0  0  0  0  0  0  0
   -6.3830   19.6370   15.6780 C   0  0  0  0  0  0  0  0  0  0  0  0
   -6.4120   21.1340   15.4040 C   0  0  0  0  0  0  0  0  0  0  0  0
   -5.7980   21.7600   16.5360 O   0  0  0  0  0  0  0  0  0  0  0  0
   -5.4410   21.3220   14.2380 C   0  0  0  0  0  0  0  0  0  0  0  0
   -7.2830   20.2980   11.3290 N   0  0  0  0  0  0  0  0  0  0  0  0
   -6.4750   22.1670   12.1160 C   0  0  0  0  0  0  0  0  0  0  0  0
   -6.1720   23.4760   12.1730 N   0  0  0  0  0  0  0  0  0  0  0  0
   -6.5740   24.2320   11.1570 C   0  0  0  0  0  0  0  0  0  0  0  0
   -7.2870   23.7490   10.1220 N   0  0  0  0  0  0  0  0  0  0  0  0
   -7.6270   22.4470   10.0840 C   0  0  0  0  0  0  0  0  0  0  0  0
   -8.3520   22.0690    9.0320 N   0  0  0  0  0  0  0  0  0  0  0  0
   -8.9300   20.7210    8.8850 C   0  0  0  0  0  0  0  0  0  0  0  0
   -6.6358   19.1083   12.9798 H   0  0  0  0  0  0  0  0  0  0  0  0
   -4.3669   19.3272   16.2796 H   0  0  0  0  0  0  0  0  0  0  0  0
   -2.5667   17.4499   12.8064 H   0  0  0  0  0  0  0  0  0  0  0  0
   -3.6121   16.0406   13.2915 H   0  0  0  0  0  0  0  0  0  0  0  0
   -0.8713    9.2662   18.8838 H   0  0  0  0  0  0  0  0  0  0  0  0
   -0.8860   11.3881   17.5815 H   0  0  0  0  0  0  0  0  0  0  0  0
    2.2101    7.6757   16.3658 H   0  0  0  0  0  0  0  0  0  0  0  0
    2.2224    9.8097   15.0334 H   0  0  0  0  0  0  0  0  0  0  0  0
    2.9476   12.0386   15.2176 H   0  0  0  0  0  0  0  0  0  0  0  0
    3.9551   14.5173   14.5184 H   0  0  0  0  0  0  0  0  0  0  0  0
    1.1283   16.4572   13.8560 H   0  0  0  0  0  0  0  0  0  0  0  0
   -1.3194   12.3568   15.6722 H   0  0  0  0  0  0  0  0  0  0  0  0
   -0.7027   16.3153   13.6283 H   0  0  0  0  0  0  0  0  0  0  0  0
   -2.2983   17.9625   14.9800 H   0  0  0  0  0  0  0  0  0  0  0  0
   -4.2230   16.9985   16.8582 H   0  0  0  0  0  0  0  0  0  0  0  0
   -4.5747   15.7640   15.9791 H   0  0  0  0  0  0  0  0  0  0  0  0
   -5.5730   17.9469   14.1029 H   0  0  0  0  0  0  0  0  0  0  0  0
   -7.0851   19.0966   15.0261 H   0  0  0  0  0  0  0  0  0  0  0  0
   -6.6840   19.3647   16.7004 H   0  0  0  0  0  0  0  0  0  0  0  0
   -7.4205   21.5282   15.2103 H   0  0  0  0  0  0  0  0  0  0  0  0
   -6.1732   21.3775   17.3685 H   0  0  0  0  0  0  0  0  0  0  0  0
   -4.9595   22.3109   14.2550 H   0  0  0  0  0  0  0  0  0  0  0  0
   -6.3126   25.3005   11.1616 H   0  0  0  0  0  0  0  0  0  0  0  0
   -8.5173   22.7550    8.2817 H   0  0  0  0  0  0  0  0  0  0  0  0
   -9.1145   20.2906    9.8804 H   0  0  0  0  0  0  0  0  0  0  0  0
   -9.8789   20.7872    8.3325 H   0  0  0  0  0  0  0  0  0  0  0  0
   -8.2279   20.0793    8.3325 H   0  0  0  0  0  0  0  0  0  0  0  0
 39 38  1  0
 38 37  1  0
 37 36  1  0
 37  2  2  0
 36 35  2  0
  2 32  1  0
  2 33  1  0
 35 34  1  0
 32  4  2  0
 33 34  2  0
 33  1  1  0
  4  1  1  0
  1 31  1  0
 20  6  1  0
 10 23  1  0
 10 24  1  0
 23  7  1  0
 19  9  1  0
  6  9  2  0
  6  3  1  0
 31 27  1  0
 31 29  1  0
  9 18  1  0
  7  3  1  0
  7 22  2  0
 27  5  1  0
  3 21  2  0
 26 24  1  0
 26  5  1  0
 26 25  1  0
 24 25  1  0
 18  8  2  0
 21  8  1  0
  5 28  1  0
 29 28  1  0
 29 30  1  0
  8 17  1  0
 16 17  2  0
 16 15  1  0
 17 14  1  0
 15 12  2  0
 14 13  2  0
 12 13  1  0
 12 11  1  0
  4 40  1  0
  5 41  1  0
 10 42  1  0
 10 43  1  0
 13 44  1  0
 14 45  1  0
 15 46  1  0
 16 47  1  0
 18 48  1  0
 19 49  1  0
 20 50  1  0
 21 51  1  0
 23 52  1  0
 24 53  1  0
 25 54  1  0
 25 55  1  0
 26 56  1  0
 28 57  1  0
 28 58  1  0
 29 59  1  0
 30 60  1  0
 31 61  1  0
 35 62  1  0
 38 63  1  0
 39 64  1  0
 39 65  1  0
 39 66  1  0
A    1
N1
A    2
C4
A    3
C6
A    4
C7
A    5
C10
A    6
C13
A    7
C15
A    8
C20
A    9
C21
A   10
C26
A   11
F38
A   12
C35
A   13
C37
A   14
C30
A   15
C36
A   16
C31
A   17
C27
A   18
C23
A   19
O33
A   20
O32
A   21
C14
A   22
O28
A   23
N24
A   24
C12
A   25
C11
A   26
C9
A   27
O8
A   28
C19
A   29
C18
A   30
O34
A   31
C3
A   32
N5
A   33
C2
A   34
N17
A   35
C25
A   36
N22
A   37
C16
A   38
N29
A   39
C39
M  END
