5P9X_7JO_A_306
     RDKit          3D

 63 67  0  0  0  0  0  0  0  0999 V2000
    1.5430   17.3250   24.4730 C   0  0  0  0  0  0  0  0  0  0  0  0
    0.7070   16.2310   24.1190 C   0  0  0  0  0  0  0  0  0  0  0  0
   -0.1920   16.3810   23.0360 C   0  0  0  0  0  0  0  0  0  0  0  0
    0.8330   14.9510   24.8300 C   0  0  0  0  0  0  0  0  0  0  0  0
    2.0510   14.5150   25.3830 C   0  0  0  0  0  0  0  0  0  0  0  0
    1.0040   12.4760   26.1760 C   0  0  0  0  0  0  0  0  0  0  0  0
   -5.8340    5.1260   28.1600 C   0  0  0  0  0  0  0  0  0  0  0  0
   -4.3900    6.0260   26.3730 C   0  0  0  0  0  0  0  0  0  0  0  0
   -6.3520    7.2310   27.5270 C   0  0  0  0  0  0  0  0  0  0  0  0
   -4.6480    6.6560   24.9790 C   0  0  0  0  0  0  0  0  0  0  0  0
   -7.5160    4.8660   29.9280 C   0  0  0  0  0  0  0  0  0  0  0  0
   -0.2740   17.5650   22.3360 C   0  0  0  0  0  0  0  0  0  0  0  0
    0.5590   18.5980   22.6990 C   0  0  0  0  0  0  0  0  0  0  0  0
    1.4620   18.5210   23.7570 C   0  0  0  0  0  0  0  0  0  0  0  0
    2.1160   13.2880   26.0630 C   0  0  0  0  0  0  0  0  0  0  0  0
   -0.1970   12.8270   25.5880 C   0  0  0  0  0  0  0  0  0  0  0  0
   -0.2280   14.0530   24.9000 C   0  0  0  0  0  0  0  0  0  0  0  0
    0.5250   19.7030   22.0170 F   0  0  0  0  0  0  0  0  0  0  0  0
   -1.3830   11.9170   25.5380 C   0  0  0  0  0  0  0  0  0  0  0  0
   -1.2310   10.6290   25.9500 N   0  0  0  0  0  0  0  0  0  0  0  0
   -2.4400   12.3540   25.0380 O   0  0  0  0  0  0  0  0  0  0  0  0
    1.1510   11.3830   26.9540 O   0  0  0  0  0  0  0  0  0  0  0  0
    3.3020   12.8790   26.5750 O   0  0  0  0  0  0  0  0  0  0  0  0
   -5.4890    6.1330   27.2950 N   0  0  0  0  0  0  0  0  0  0  0  0
   -6.9160    5.6680   28.9150 C   0  0  0  0  0  0  0  0  0  0  0  0
   -5.3690    3.8830   28.3100 N   0  0  0  0  0  0  0  0  0  0  0  0
   -3.3370    6.8500   26.8510 O   0  0  0  0  0  0  0  0  0  0  0  0
   -7.1810    6.9850   28.5370 N   0  0  0  0  0  0  0  0  0  0  0  0
   -6.0030    3.2420   29.3040 C   0  0  0  0  0  0  0  0  0  0  0  0
   -2.3990    7.0110   25.7550 C   0  0  0  0  0  0  0  0  0  0  0  0
   -3.2130    6.9490   24.4510 C   0  0  0  0  0  0  0  0  0  0  0  0
   -5.4210    5.7580   24.1370 O   0  0  0  0  0  0  0  0  0  0  0  0
   -7.0100    3.6200   30.1220 N   0  0  0  0  0  0  0  0  0  0  0  0
   -8.5090    5.2700   30.7230 N   0  0  0  0  0  0  0  0  0  0  0  0
   -1.5560    8.2930   25.9380 C   0  0  0  0  0  0  0  0  0  0  0  0
   -2.7210    5.8820   23.6340 O   0  0  0  0  0  0  0  0  0  0  0  0
   -2.2640    9.6280   25.7940 C   0  0  0  0  0  0  0  0  0  0  0  0
   -3.3840    9.8870   26.8140 C   0  0  0  0  0  0  0  0  0  0  0  0
    2.2518   17.2295   25.3088 H   0  0  0  0  0  0  0  0  0  0  0  0
   -0.8366   15.5374   22.7481 H   0  0  0  0  0  0  0  0  0  0  0  0
    2.9534   15.1359   25.2826 H   0  0  0  0  0  0  0  0  0  0  0  0
   -4.1978    4.9459   26.2926 H   0  0  0  0  0  0  0  0  0  0  0  0
   -6.3385    8.1657   26.9473 H   0  0  0  0  0  0  0  0  0  0  0  0
   -5.2574    7.5715   25.0007 H   0  0  0  0  0  0  0  0  0  0  0  0
   -0.9879   17.6814   21.5073 H   0  0  0  0  0  0  0  0  0  0  0  0
    2.0952   19.3807   24.0217 H   0  0  0  0  0  0  0  0  0  0  0  0
   -1.1588   14.3219   24.3791 H   0  0  0  0  0  0  0  0  0  0  0  0
   -0.3420   10.3548   26.3921 H   0  0  0  0  0  0  0  0  0  0  0  0
    1.1390   11.4719   27.9399 H   0  0  0  0  0  0  0  0  0  0  0  0
    3.4290   12.8352   27.5558 H   0  0  0  0  0  0  0  0  0  0  0  0
   -5.6354    2.2214   29.4864 H   0  0  0  0  0  0  0  0  0  0  0  0
   -1.6509    6.2051   25.7242 H   0  0  0  0  0  0  0  0  0  0  0  0
   -3.1636    7.8538   23.8274 H   0  0  0  0  0  0  0  0  0  0  0  0
   -5.9492    5.1444   24.7067 H   0  0  0  0  0  0  0  0  0  0  0  0
   -8.4000    5.2257   31.7463 H   0  0  0  0  0  0  0  0  0  0  0  0
   -9.3843    5.6261   30.3133 H   0  0  0  0  0  0  0  0  0  0  0  0
   -1.1207    8.2589   26.9476 H   0  0  0  0  0  0  0  0  0  0  0  0
   -0.8320    8.2709   25.1102 H   0  0  0  0  0  0  0  0  0  0  0  0
   -2.3844    5.1521   24.2119 H   0  0  0  0  0  0  0  0  0  0  0  0
   -2.7724    9.6495   24.8187 H   0  0  0  0  0  0  0  0  0  0  0  0
   -2.9806    9.7937   27.8331 H   0  0  0  0  0  0  0  0  0  0  0  0
   -3.7842   10.9014   26.6695 H   0  0  0  0  0  0  0  0  0  0  0  0
   -4.1889    9.1513   26.6695 H   0  0  0  0  0  0  0  0  0  0  0  0
 18 13  1  0
 12 13  2  0
 12  3  1  0
 13 14  1  0
  3  2  2  0
 36 31  1  0
 14  1  2  0
  2  1  1  0
  2  4  1  0
 32 10  1  0
 31 10  1  0
 31 30  1  0
  4 17  1  0
  4  5  2  0
 17 16  2  0
 10  8  1  0
 21 19  2  0
  5 15  1  0
 19 16  1  0
 19 20  1  0
 16  6  1  0
 30 35  1  0
 30 27  1  0
 37 35  1  0
 37 20  1  0
 37 38  1  0
 15  6  2  0
 15 23  1  0
  6 22  1  0
  8 27  1  0
  8 24  1  0
 24  9  1  0
 24  7  1  0
  9 28  2  0
  7 26  2  0
  7 25  1  0
 26 29  1  0
 28 25  1  0
 25 11  2  0
 29 33  2  0
 11 33  1  0
 11 34  1  0
  1 39  1  0
  3 40  1  0
  5 41  1  0
  8 42  1  0
  9 43  1  0
 10 44  1  0
 12 45  1  0
 14 46  1  0
 17 47  1  0
 20 48  1  0
 22 49  1  0
 23 50  1  0
 29 51  1  0
 30 52  1  0
 31 53  1  0
 32 54  1  0
 34 55  1  0
 34 56  1  0
 35 57  1  0
 35 58  1  0
 36 59  1  0
 37 60  1  0
 38 61  1  0
 38 62  1  0
 38 63  1  0
A    1
C4
A    2
C5
A    3
C6
A    4
C7
A    5
C8
A    6
C10
A    7
C20
A    8
C21
A    9
C22
A   10
C26
A   11
C28
A   12
C1
A   13
C2
A   14
C3
A   15
C9
A   16
C11
A   17
C12
A   18
F13
A   19
C14
A   20
N15
A   21
O16
A   22
O17
A   23
O18
A   24
N19
A   25
C23
A   26
N24
A   27
O25
A   28
N27
A   29
C29
A   30
C30
A   31
C31
A   32
O32
A   33
N33
A   34
N34
A   35
C35
A   36
O36
A   37
C37
A   38
C38
M  END
