5P9Y_7JP_A_302
     RDKit          3D

 56 60  0  0  0  0  0  0  0  0999 V2000
    1.9430   13.4120   26.1970 C   0  0  0  0  0  0  0  0  0  0  0  0
   -0.4760   13.1540   25.8990 C   0  0  0  0  0  0  0  0  0  0  0  0
    0.7720   12.6670   26.3910 C   0  0  0  0  0  0  0  0  0  0  0  0
   -2.6660   10.2970   27.0350 C   0  0  0  0  0  0  0  0  0  0  0  0
   -4.4230    8.8680   25.7820 C   0  0  0  0  0  0  0  0  0  0  0  0
   -5.8360    6.9780   26.8110 C   0  0  0  0  0  0  0  0  0  0  0  0
   -4.8220    3.9370   28.5720 C   0  0  0  0  0  0  0  0  0  0  0  0
   -6.4970    5.5070   28.7260 C   0  0  0  0  0  0  0  0  0  0  0  0
   -6.0140    4.2800   29.3180 C   0  0  0  0  0  0  0  0  0  0  0  0
   -7.6680    6.1350   29.1900 C   0  0  0  0  0  0  0  0  0  0  0  0
    1.4050   17.4780   24.6780 C   0  0  0  0  0  0  0  0  0  0  0  0
   -0.5100   14.4040   25.2180 C   0  0  0  0  0  0  0  0  0  0  0  0
    0.6470   15.1440   25.0320 C   0  0  0  0  0  0  0  0  0  0  0  0
    1.8810   14.6520   25.5220 C   0  0  0  0  0  0  0  0  0  0  0  0
    3.1050   12.9230   26.6820 O   0  0  0  0  0  0  0  0  0  0  0  0
    0.8540   11.4770   27.1010 N   0  0  0  0  0  0  0  0  0  0  0  0
   -0.2300   10.7760   27.2310 C   0  0  0  0  0  0  0  0  0  0  0  0
   -1.4950   11.1270   26.7800 N   0  0  0  0  0  0  0  0  0  0  0  0
   -1.6610   12.3570   26.1380 C   0  0  0  0  0  0  0  0  0  0  0  0
   -2.7730   12.7070   25.7560 O   0  0  0  0  0  0  0  0  0  0  0  0
   -3.0470    9.5570   25.7480 C   0  0  0  0  0  0  0  0  0  0  0  0
   -4.5330    7.8750   26.9340 C   0  0  0  0  0  0  0  0  0  0  0  0
   -5.6550    5.8620   27.6800 N   0  0  0  0  0  0  0  0  0  0  0  0
   -4.6240    4.9130   27.5770 C   0  0  0  0  0  0  0  0  0  0  0  0
   -6.7570    3.7140   30.3360 C   0  0  0  0  0  0  0  0  0  0  0  0
   -7.8660    4.2940   30.7900 N   0  0  0  0  0  0  0  0  0  0  0  0
   -8.2630    5.4420   30.2290 C   0  0  0  0  0  0  0  0  0  0  0  0
    0.6030   16.4180   24.3120 C   0  0  0  0  0  0  0  0  0  0  0  0
    1.4250   18.6870   24.0110 C   0  0  0  0  0  0  0  0  0  0  0  0
    0.5440   18.7760   22.9220 C   0  0  0  0  0  0  0  0  0  0  0  0
   -0.2930   17.7500   22.5450 C   0  0  0  0  0  0  0  0  0  0  0  0
   -0.2710   16.5580   23.2450 C   0  0  0  0  0  0  0  0  0  0  0  0
    0.5170   19.9460   22.2550 F   0  0  0  0  0  0  0  0  0  0  0  0
   -3.5046   10.9321   27.3566 H   0  0  0  0  0  0  0  0  0  0  0  0
   -2.4382    9.5687   27.8273 H   0  0  0  0  0  0  0  0  0  0  0  0
   -5.2023    9.6355   25.8984 H   0  0  0  0  0  0  0  0  0  0  0  0
   -4.5502    8.3136   24.8405 H   0  0  0  0  0  0  0  0  0  0  0  0
   -6.7220    7.5545   27.1154 H   0  0  0  0  0  0  0  0  0  0  0  0
   -5.9897    6.6476   25.7731 H   0  0  0  0  0  0  0  0  0  0  0  0
   -4.1798    3.0622   28.7520 H   0  0  0  0  0  0  0  0  0  0  0  0
   -8.0656    7.0721   28.7731 H   0  0  0  0  0  0  0  0  0  0  0  0
    2.0652   17.3539   25.5491 H   0  0  0  0  0  0  0  0  0  0  0  0
   -1.4671   14.7874   24.8345 H   0  0  0  0  0  0  0  0  0  0  0  0
    2.7991   15.2400   25.3760 H   0  0  0  0  0  0  0  0  0  0  0  0
    3.2471   12.8632   27.6599 H   0  0  0  0  0  0  0  0  0  0  0  0
   -0.1376    9.8099   27.7488 H   0  0  0  0  0  0  0  0  0  0  0  0
   -2.2840    8.7880   25.5569 H   0  0  0  0  0  0  0  0  0  0  0  0
   -3.1024   10.3198   24.9574 H   0  0  0  0  0  0  0  0  0  0  0  0
   -3.6481    7.2216   26.9275 H   0  0  0  0  0  0  0  0  0  0  0  0
   -4.5950    8.4440   27.8734 H   0  0  0  0  0  0  0  0  0  0  0  0
   -3.8033    4.9298   26.8448 H   0  0  0  0  0  0  0  0  0  0  0  0
   -6.4253    2.7642   30.7808 H   0  0  0  0  0  0  0  0  0  0  0  0
   -9.1766    5.8908   30.6460 H   0  0  0  0  0  0  0  0  0  0  0  0
    2.0815   19.5172   24.3104 H   0  0  0  0  0  0  0  0  0  0  0  0
   -0.9753   17.8779   21.6917 H   0  0  0  0  0  0  0  0  0  0  0  0
   -0.9382   15.7315   22.9591 H   0  0  0  0  0  0  0  0  0  0  0  0
 33 30  1  0
 31 30  2  0
 31 32  1  0
 30 29  1  0
 32 28  2  0
 29 11  2  0
 28 11  1  0
 28 13  1  0
 13 12  2  0
 13 14  1  0
 12  2  1  0
 14  1  2  0
 21  5  1  0
 21  4  1  0
 20 19  2  0
  5 22  1  0
  2 19  1  0
  2  3  2  0
 19 18  1  0
  1  3  1  0
  1 15  1  0
  3 16  1  0
 18  4  1  0
 18 17  1  0
  6 22  1  0
  6 23  1  0
 16 17  2  0
 24 23  1  0
 24  7  2  0
 23  8  1  0
  7  9  1  0
  8 10  1  0
  8  9  2  0
 10 27  2  0
  9 25  1  0
 27 26  1  0
 25 26  2  0
  4 34  1  0
  4 35  1  0
  5 36  1  0
  5 37  1  0
  6 38  1  0
  6 39  1  0
  7 40  1  0
 10 41  1  0
 11 42  1  0
 12 43  1  0
 14 44  1  0
 15 45  1  0
 17 46  1  0
 21 47  1  0
 21 48  1  0
 22 49  1  0
 22 50  1  0
 24 51  1  0
 25 52  1  0
 27 53  1  0
 29 54  1  0
 31 55  1  0
 32 56  1  0
A    1
C4
A    2
C6
A    3
C7
A    4
C13
A    5
C15
A    6
C17
A    7
C20
A    8
C21
A    9
C22
A   10
C26
A   11
C28
A   12
C1
A   13
C2
A   14
C3
A   15
O5
A   16
N8
A   17
C9
A   18
N10
A   19
C11
A   20
O12
A   21
C14
A   22
C16
A   23
N18
A   24
C19
A   25
C23
A   26
N24
A   27
C25
A   28
C27
A   29
C29
A   30
C30
A   31
C31
A   32
C32
A   33
F33
M  END
