5P9Z_7JQ_A_305
     RDKit          3D

 27 29  0  0  0  0  0  0  0  0999 V2000
   -0.3630   13.2090   25.9010 C   0  0  0  0  0  0  0  0  0  0  0  0
    0.8830   12.7620   26.4270 C   0  0  0  0  0  0  0  0  0  0  0  0
   -0.4030   14.4630   25.2110 C   0  0  0  0  0  0  0  0  0  0  0  0
    0.7330   15.1910   25.0050 C   0  0  0  0  0  0  0  0  0  0  0  0
    2.0510   13.4910   26.1610 C   0  0  0  0  0  0  0  0  0  0  0  0
    1.5140   17.5180   24.5890 C   0  0  0  0  0  0  0  0  0  0  0  0
    0.6030   18.8460   22.8750 C   0  0  0  0  0  0  0  0  0  0  0  0
   -0.1820   16.6380   23.2270 C   0  0  0  0  0  0  0  0  0  0  0  0
   -0.0980   10.9010   27.2510 C   0  0  0  0  0  0  0  0  0  0  0  0
   -1.4010   11.2240   26.8790 N   0  0  0  0  0  0  0  0  0  0  0  0
   -1.5000   12.3820   26.2210 C   0  0  0  0  0  0  0  0  0  0  0  0
    1.0090   11.5740   27.0950 N   0  0  0  0  0  0  0  0  0  0  0  0
    1.9960   14.7130   25.4800 C   0  0  0  0  0  0  0  0  0  0  0  0
    3.2300   13.0900   26.6270 O   0  0  0  0  0  0  0  0  0  0  0  0
    0.6790   16.4840   24.2680 C   0  0  0  0  0  0  0  0  0  0  0  0
    1.5170   18.7130   23.8980 C   0  0  0  0  0  0  0  0  0  0  0  0
   -0.2160   17.8390   22.5080 C   0  0  0  0  0  0  0  0  0  0  0  0
    0.5780   20.0140   22.1230 F   0  0  0  0  0  0  0  0  0  0  0  0
   -1.3654   14.8461   24.8407 H   0  0  0  0  0  0  0  0  0  0  0  0
    2.2107   17.3927   25.4309 H   0  0  0  0  0  0  0  0  0  0  0  0
   -0.8557   15.8144   22.9481 H   0  0  0  0  0  0  0  0  0  0  0  0
    0.0151    9.9291   27.7536 H   0  0  0  0  0  0  0  0  0  0  0  0
   -2.4982   12.7216   25.9077 H   0  0  0  0  0  0  0  0  0  0  0  0
    2.9119   15.2986   25.3120 H   0  0  0  0  0  0  0  0  0  0  0  0
    3.3844   13.0375   27.6035 H   0  0  0  0  0  0  0  0  0  0  0  0
    2.2171   19.5224   24.1523 H   0  0  0  0  0  0  0  0  0  0  0  0
   -0.9010   17.9596   21.6558 H   0  0  0  0  0  0  0  0  0  0  0  0
 18  7  1  0
 17  7  2  0
 17  8  1  0
  7 16  1  0
  8 15  2  0
 16  6  2  0
 15  6  1  0
 15  4  1  0
  4  3  2  0
  4 13  1  0
  3  1  1  0
 13  5  2  0
  1 11  2  0
  1  2  1  0
  5  2  1  0
  5 14  1  0
 11 10  1  0
  2 12  2  0
 10  9  2  0
 12  9  1  0
  3 19  1  0
  6 20  1  0
  8 21  1  0
  9 22  1  0
 11 23  1  0
 13 24  1  0
 14 25  1  0
 16 26  1  0
 17 27  1  0
A    1
C4
A    2
C5
A    3
C7
A    4
C8
A    5
C10
A    6
C13
A    7
C15
A    8
C17
A    9
C1
A   10
N2
A   11
C3
A   12
N6
A   13
C9
A   14
O11
A   15
C12
A   16
C14
A   17
C16
A   18
F18
M  END
