5PA1_7JS_A_308
     RDKit          3D

 28 30  0  0  0  0  0  0  0  0999 V2000
    1.9990   12.3960   14.9590 C   0  0  0  0  0  0  0  0  0  0  0  0
   -0.3370   13.8590   14.4840 C   0  0  0  0  0  0  0  0  0  0  0  0
   -0.3750   12.6470   15.2040 C   0  0  0  0  0  0  0  0  0  0  0  0
    0.7400   10.6270   16.1720 C   0  0  0  0  0  0  0  0  0  0  0  0
    1.5600    9.5690   15.8530 C   0  0  0  0  0  0  0  0  0  0  0  0
   -0.1590    9.2870   17.9640 C   0  0  0  0  0  0  0  0  0  0  0  0
   -0.0660   16.2270   13.1000 C   0  0  0  0  0  0  0  0  0  0  0  0
    0.6310    7.1360   18.3160 F   0  0  0  0  0  0  0  0  0  0  0  0
    0.6590    8.2620   17.5820 C   0  0  0  0  0  0  0  0  0  0  0  0
   -0.1370   10.5000   17.2430 C   0  0  0  0  0  0  0  0  0  0  0  0
    1.5490    8.3690   16.5430 C   0  0  0  0  0  0  0  0  0  0  0  0
    0.7760   11.9090   15.4330 C   0  0  0  0  0  0  0  0  0  0  0  0
    2.0810   13.5780   14.2600 C   0  0  0  0  0  0  0  0  0  0  0  0
    3.2640   14.0360   13.7970 O   0  0  0  0  0  0  0  0  0  0  0  0
   -1.4970   14.5970   14.1590 C   0  0  0  0  0  0  0  0  0  0  0  0
   -1.3500   15.8260   13.5060 C   0  0  0  0  0  0  0  0  0  0  0  0
    1.0180   15.4700   13.3040 N   0  0  0  0  0  0  0  0  0  0  0  0
    0.9060   14.2900   14.0170 C   0  0  0  0  0  0  0  0  0  0  0  0
    2.9166   11.8201   15.1498 H   0  0  0  0  0  0  0  0  0  0  0  0
   -1.3368   12.2800   15.5915 H   0  0  0  0  0  0  0  0  0  0  0  0
    2.2573    9.6822   15.0098 H   0  0  0  0  0  0  0  0  0  0  0  0
   -0.8301    9.1679   18.8274 H   0  0  0  0  0  0  0  0  0  0  0  0
    0.0521   17.1979   12.5965 H   0  0  0  0  0  0  0  0  0  0  0  0
   -0.8020   11.3301   17.5235 H   0  0  0  0  0  0  0  0  0  0  0  0
    2.2210    7.5415   16.2716 H   0  0  0  0  0  0  0  0  0  0  0  0
    3.9718   14.3100   14.4327 H   0  0  0  0  0  0  0  0  0  0  0  0
   -2.4958   14.2133   14.4141 H   0  0  0  0  0  0  0  0  0  0  0  0
   -2.2236   16.4663   13.3141 H   0  0  0  0  0  0  0  0  0  0  0  0
  7 17  1  0
  7 16  2  0
 17 18  2  0
 16 15  1  0
 14 13  1  0
 18 13  1  0
 18  2  1  0
 15  2  2  0
 13  1  2  0
  2  3  1  0
  1 12  1  0
  3 12  2  0
 12  4  1  0
  5  4  2  0
  5 11  1  0
  4 10  1  0
 11  9  2  0
 10  6  2  0
  9  6  1  0
  9  8  1  0
  1 19  1  0
  3 20  1  0
  5 21  1  0
  6 22  1  0
  7 23  1  0
 10 24  1  0
 11 25  1  0
 14 26  1  0
 15 27  1  0
 16 28  1  0
A    1
C4
A    2
C5
A    3
C6
A    4
C7
A    5
C10
A    6
C13
A    7
C17
A    8
F15
A    9
C12
A   10
C9
A   11
C14
A   12
C1
A   13
C2
A   14
O11
A   15
C16
A   16
C18
A   17
N8
A   18
C3
M  END
