5PA2_7JU_A_305
     RDKit          3D

 28 30  0  0  0  0  0  0  0  0999 V2000
    3.1320   15.2950   25.3370 F   0  0  0  0  0  0  0  0  0  0  0  0
    2.0050   14.6090   25.5980 C   0  0  0  0  0  0  0  0  0  0  0  0
    2.1300   13.4060   26.2880 C   0  0  0  0  0  0  0  0  0  0  0  0
    3.3260   12.9510   26.7230 O   0  0  0  0  0  0  0  0  0  0  0  0
    0.9690   12.7030   26.5660 C   0  0  0  0  0  0  0  0  0  0  0  0
    1.1250   11.5330   27.2870 N   0  0  0  0  0  0  0  0  0  0  0  0
    0.0660   10.8530   27.5710 C   0  0  0  0  0  0  0  0  0  0  0  0
   -1.2080   11.2480   27.2070 N   0  0  0  0  0  0  0  0  0  0  0  0
   -1.4190   12.4130   26.5320 C   0  0  0  0  0  0  0  0  0  0  0  0
   -2.6260   12.7740   26.2990 O   0  0  0  0  0  0  0  0  0  0  0  0
   -0.2770   13.1830   26.1540 C   0  0  0  0  0  0  0  0  0  0  0  0
   -0.3760   14.4080   25.4520 C   0  0  0  0  0  0  0  0  0  0  0  0
    0.7710   15.1430   25.1790 C   0  0  0  0  0  0  0  0  0  0  0  0
    0.6820   16.4170   24.4040 C   0  0  0  0  0  0  0  0  0  0  0  0
   -0.1540   16.4790   23.2720 C   0  0  0  0  0  0  0  0  0  0  0  0
   -0.2160   17.6520   22.5490 C   0  0  0  0  0  0  0  0  0  0  0  0
    0.5830   18.6980   22.9090 C   0  0  0  0  0  0  0  0  0  0  0  0
    0.5320   19.8580   22.1740 F   0  0  0  0  0  0  0  0  0  0  0  0
    1.3690   18.6940   24.0110 C   0  0  0  0  0  0  0  0  0  0  0  0
    1.4570   17.5330   24.7620 C   0  0  0  0  0  0  0  0  0  0  0  0
    3.5061   12.8825   27.6941 H   0  0  0  0  0  0  0  0  0  0  0  0
    0.1824    9.9129   28.1301 H   0  0  0  0  0  0  0  0  0  0  0  0
   -2.0116   10.6514   27.4502 H   0  0  0  0  0  0  0  0  0  0  0  0
   -1.3587   14.7772   25.1233 H   0  0  0  0  0  0  0  0  0  0  0  0
   -0.7488   15.6047   22.9690 H   0  0  0  0  0  0  0  0  0  0  0  0
   -0.9009   17.7431   21.6930 H   0  0  0  0  0  0  0  0  0  0  0  0
    1.9272   19.5952   24.3047 H   0  0  0  0  0  0  0  0  0  0  0  0
    2.1285   17.4853   25.6319 H   0  0  0  0  0  0  0  0  0  0  0  0
 18 17  1  0
 16 17  1  0
 16 15  2  0
 17 19  2  0
 15 14  1  0
 19 20  1  0
 14 20  2  0
 14 13  1  0
 13 12  1  0
 13  2  2  0
  1  2  1  0
 12 11  2  0
  2  3  1  0
 11  9  1  0
 11  5  1  0
  3  5  2  0
  3  4  1  0
 10  9  2  0
  9  8  1  0
  5  6  1  0
  8  7  1  0
  6  7  2  0
  4 21  1  0
  7 22  1  0
  8 23  1  0
 12 24  1  0
 15 25  1  0
 16 26  1  0
 19 27  1  0
 20 28  1  0
A    1
F20
A    2
C1
A    3
C6
A    4
O7
A    5
C5
A    6
N12
A    7
C11
A    8
N10
A    9
C9
A   10
O13
A   11
C4
A   12
C3
A   13
C2
A   14
C8
A   15
C18
A   16
C17
A   17
C16
A   18
F19
A   19
C15
A   20
C14
M  END
