5PA3_7JV_A_302
     RDKit          3D

 35 37  0  0  0  0  0  0  0  0999 V2000
   -0.1120   10.6320   27.4440 C   0  0  0  0  0  0  0  0  0  0  0  0
   -0.2090   17.5670   22.4990 C   0  0  0  0  0  0  0  0  0  0  0  0
    0.4970   18.6140   22.9680 C   0  0  0  0  0  0  0  0  0  0  0  0
    1.2530   18.4600   24.0760 C   0  0  0  0  0  0  0  0  0  0  0  0
    1.2640   17.2490   24.7530 C   0  0  0  0  0  0  0  0  0  0  0  0
   -1.0690   15.2330   22.5320 C   0  0  0  0  0  0  0  0  0  0  0  0
   -3.1860   14.0530   22.7590 C   0  0  0  0  0  0  0  0  0  0  0  0
    0.5580   16.1440   24.3120 C   0  0  0  0  0  0  0  0  0  0  0  0
    0.6100   14.9250   25.0570 C   0  0  0  0  0  0  0  0  0  0  0  0
   -1.3830   11.0190   27.0830 N   0  0  0  0  0  0  0  0  0  0  0  0
    3.1210   12.7860   26.6460 O   0  0  0  0  0  0  0  0  0  0  0  0
    1.8630   14.4400   25.4680 C   0  0  0  0  0  0  0  0  0  0  0  0
    1.9550   13.2730   26.1810 C   0  0  0  0  0  0  0  0  0  0  0  0
   -0.5200   14.1500   25.3530 C   0  0  0  0  0  0  0  0  0  0  0  0
   -0.4040   12.9500   26.0530 C   0  0  0  0  0  0  0  0  0  0  0  0
    0.8250   12.5220   26.4550 C   0  0  0  0  0  0  0  0  0  0  0  0
    1.0200   11.3480   27.1250 N   0  0  0  0  0  0  0  0  0  0  0  0
   -1.5080   12.1580   26.3740 C   0  0  0  0  0  0  0  0  0  0  0  0
   -2.7750   12.4630   26.0800 O   0  0  0  0  0  0  0  0  0  0  0  0
   -0.2370   16.3240   23.1480 C   0  0  0  0  0  0  0  0  0  0  0  0
   -2.3610   15.1660   23.0880 O   0  0  0  0  0  0  0  0  0  0  0  0
    0.0054    9.7010   28.0180 H   0  0  0  0  0  0  0  0  0  0  0  0
   -0.7860   17.6918   21.5708 H   0  0  0  0  0  0  0  0  0  0  0  0
    0.4579   19.5853   22.4531 H   0  0  0  0  0  0  0  0  0  0  0  0
    1.8629   19.2984   24.4436 H   0  0  0  0  0  0  0  0  0  0  0  0
    1.8568   17.1642   25.6757 H   0  0  0  0  0  0  0  0  0  0  0  0
   -0.5641   14.2692   22.6939 H   0  0  0  0  0  0  0  0  0  0  0  0
   -1.1757   15.4564   21.4602 H   0  0  0  0  0  0  0  0  0  0  0  0
   -3.5411   13.5739   23.6833 H   0  0  0  0  0  0  0  0  0  0  0  0
   -4.0486   14.3975   22.1698 H   0  0  0  0  0  0  0  0  0  0  0  0
   -2.6056   13.3278   22.1698 H   0  0  0  0  0  0  0  0  0  0  0  0
    3.2764   12.7211   27.6216 H   0  0  0  0  0  0  0  0  0  0  0  0
    2.7755   15.0002   25.2161 H   0  0  0  0  0  0  0  0  0  0  0  0
   -1.5131   14.4939   25.0281 H   0  0  0  0  0  0  0  0  0  0  0  0
    1.9619   11.0165   27.3777 H   0  0  0  0  0  0  0  0  0  0  0  0
  2  3  2  0
  2 20  1  0
  6 21  1  0
  6 20  1  0
  7 21  1  0
  3  4  1  0
 20  8  2  0
  4  5  2  0
  8  5  1  0
  8  9  1  0
  9 14  2  0
  9 12  1  0
 14 15  1  0
 12 13  2  0
 15 18  1  0
 15 16  2  0
 19 18  2  0
 13 16  1  0
 13 11  1  0
 18 10  1  0
 16 17  1  0
 10  1  2  0
 17  1  1  0
  1 22  1  0
  2 23  1  0
  3 24  1  0
  4 25  1  0
  5 26  1  0
  6 27  1  0
  6 28  1  0
  7 29  1  0
  7 30  1  0
  7 31  1  0
 11 32  1  0
 12 33  1  0
 14 34  1  0
 17 35  1  0
A    1
C11
A    2
C15
A    3
C16
A    4
C17
A    5
C18
A    6
C19
A    7
C21
A    8
C1
A    9
C2
A   10
N3
A   11
O4
A   12
C5
A   13
C6
A   14
C7
A   15
C8
A   16
C9
A   17
N10
A   18
C12
A   19
O13
A   20
C14
A   21
O20
M  END
