5PA6_7JW_A_302
     RDKit          3D

 27 29  0  0  0  0  0  0  0  0999 V2000
   23.3950  -14.0820  -14.1450 C   0  0  0  0  0  0  0  0  0  0  0  0
   24.5510  -13.3510  -13.9100 C   0  0  0  0  0  0  0  0  0  0  0  0
   25.7790  -13.8330  -14.3500 C   0  0  0  0  0  0  0  0  0  0  0  0
   26.8100  -11.9270  -13.4490 C   0  0  0  0  0  0  0  0  0  0  0  0
   23.9010  -18.1090  -15.6680 C   0  0  0  0  0  0  0  0  0  0  0  0
   24.8210  -19.4440  -17.4480 C   0  0  0  0  0  0  0  0  0  0  0  0
   25.6010  -17.1900  -17.0840 C   0  0  0  0  0  0  0  0  0  0  0  0
   23.4540  -15.2960  -14.8280 C   0  0  0  0  0  0  0  0  0  0  0  0
   24.6810  -15.8050  -15.2880 C   0  0  0  0  0  0  0  0  0  0  0  0
   25.8400  -15.0430  -15.0450 C   0  0  0  0  0  0  0  0  0  0  0  0
   26.8910  -13.1010  -14.1090 N   0  0  0  0  0  0  0  0  0  0  0  0
   25.5780  -11.4620  -13.0070 C   0  0  0  0  0  0  0  0  0  0  0  0
   24.4670  -12.1800  -13.2360 N   0  0  0  0  0  0  0  0  0  0  0  0
   24.7270  -17.0290  -16.0020 C   0  0  0  0  0  0  0  0  0  0  0  0
   22.2000  -13.5830  -13.6730 O   0  0  0  0  0  0  0  0  0  0  0  0
   23.9410  -19.3020  -16.3900 C   0  0  0  0  0  0  0  0  0  0  0  0
   25.6490  -18.3870  -17.8010 C   0  0  0  0  0  0  0  0  0  0  0  0
   24.8520  -20.5840  -18.1380 F   0  0  0  0  0  0  0  0  0  0  0  0
   27.7198  -11.3380  -13.2609 H   0  0  0  0  0  0  0  0  0  0  0  0
   23.2070  -18.0150  -14.8198 H   0  0  0  0  0  0  0  0  0  0  0  0
   26.2611  -16.3592  -17.3741 H   0  0  0  0  0  0  0  0  0  0  0  0
   22.5288  -15.8627  -15.0092 H   0  0  0  0  0  0  0  0  0  0  0  0
   26.8117  -15.4076  -15.4094 H   0  0  0  0  0  0  0  0  0  0  0  0
   25.5126  -10.5048  -12.4690 H   0  0  0  0  0  0  0  0  0  0  0  0
   22.0418  -13.5169  -12.6980 H   0  0  0  0  0  0  0  0  0  0  0  0
   23.2716  -20.1313  -16.1176 H   0  0  0  0  0  0  0  0  0  0  0  0
   26.3440  -18.4928  -18.6470 H   0  0  0  0  0  0  0  0  0  0  0  0
 18  6  1  0
 17  6  2  0
 17  7  1  0
  6 16  1  0
  7 14  2  0
 16  5  2  0
 14  5  1  0
 14  9  1  0
  9 10  2  0
  9  8  1  0
 10  3  1  0
  8  1  2  0
  3 11  1  0
  3  2  2  0
  1  2  1  0
  1 15  1  0
 11  4  2  0
  2 13  1  0
  4 12  1  0
 13 12  2  0
  4 19  1  0
  5 20  1  0
  7 21  1  0
  8 22  1  0
 10 23  1  0
 12 24  1  0
 15 25  1  0
 16 26  1  0
 17 27  1  0
A    1
C4
A    2
C5
A    3
C6
A    4
C8
A    5
C13
A    6
C15
A    7
C17
A    8
C1
A    9
C2
A   10
C3
A   11
N7
A   12
C9
A   13
N10
A   14
C11
A   15
O12
A   16
C14
A   17
C16
A   18
F18
M  END
