5PGU_8K4_A_302
     RDKit          3D

 54 58  0  0  0  0  0  0  0  0999 V2000
   43.0540   61.7440   80.7910 C   0  0  0  0  0  0  0  0  0  0  0  0
   45.2900   59.4520   83.0930 C   0  0  0  0  0  0  0  0  0  0  0  0
   43.0160   59.3860   81.1130 C   0  0  0  0  0  0  0  0  0  0  0  0
   43.1270   59.1900   79.7430 C   0  0  0  0  0  0  0  0  0  0  0  0
   43.1910   60.2920   78.9360 C   0  0  0  0  0  0  0  0  0  0  0  0
   46.4940   60.5860   81.1160 C   0  0  0  0  0  0  0  0  0  0  0  0
   47.2310   59.5420   80.2580 C   0  0  0  0  0  0  0  0  0  0  0  0
   46.8740   58.4790   81.3140 C   0  0  0  0  0  0  0  0  0  0  0  0
   43.0120   60.6640   81.6690 C   0  0  0  0  0  0  0  0  0  0  0  0
   44.6110   60.7270   83.5370 C   0  0  0  0  0  0  0  0  0  0  0  0
   42.2110   59.8460   83.9930 C   0  0  0  0  0  0  0  0  0  0  0  0
   43.0900   60.8780   83.2260 C   0  0  0  0  0  0  0  0  0  0  0  0
   42.5790   62.2850   83.6670 C   0  0  0  0  0  0  0  0  0  0  0  0
   42.7200   62.4710   85.1850 C   0  0  0  0  0  0  0  0  0  0  0  0
   41.8850   61.4250   85.9180 C   0  0  0  0  0  0  0  0  0  0  0  0
   42.3520   60.0280   85.5120 C   0  0  0  0  0  0  0  0  0  0  0  0
   40.7280   60.0180   83.6320 C   0  0  0  0  0  0  0  0  0  0  0  0
   40.4120   61.5960   85.5420 C   0  0  0  0  0  0  0  0  0  0  0  0
   40.2520   61.4170   84.0320 C   0  0  0  0  0  0  0  0  0  0  0  0
   41.0920   62.4670   83.3060 C   0  0  0  0  0  0  0  0  0  0  0  0
   43.1450   61.5650   79.4200 C   0  0  0  0  0  0  0  0  0  0  0  0
   46.0920   59.5000   82.0100 N   0  0  0  0  0  0  0  0  0  0  0  0
   45.1290   58.4210   83.7280 O   0  0  0  0  0  0  0  0  0  0  0  0
   43.3150   60.1100   77.5880 F   0  0  0  0  0  0  0  0  0  0  0  0
   46.4290   59.3720   79.0920 O   0  0  0  0  0  0  0  0  0  0  0  0
   47.1470   59.4580   77.8820 C   0  0  0  0  0  0  0  0  0  0  0  0
   43.0139   62.7658   81.1963 H   0  0  0  0  0  0  0  0  0  0  0  0
   42.9292   58.5120   81.7752 H   0  0  0  0  0  0  0  0  0  0  0  0
   43.1625   58.1759   79.3184 H   0  0  0  0  0  0  0  0  0  0  0  0
   47.1480   61.3395   81.5791 H   0  0  0  0  0  0  0  0  0  0  0  0
   45.7527   61.2688   80.6754 H   0  0  0  0  0  0  0  0  0  0  0  0
   48.2695   59.6490   79.9114 H   0  0  0  0  0  0  0  0  0  0  0  0
   46.2827   57.6348   80.9296 H   0  0  0  0  0  0  0  0  0  0  0  0
   47.6542   57.9027   81.8329 H   0  0  0  0  0  0  0  0  0  0  0  0
   44.7336   60.8033   84.6275 H   0  0  0  0  0  0  0  0  0  0  0  0
   45.0972   61.5220   82.9525 H   0  0  0  0  0  0  0  0  0  0  0  0
   42.5581   58.8442   83.6999 H   0  0  0  0  0  0  0  0  0  0  0  0
   43.1920   63.0291   83.1373 H   0  0  0  0  0  0  0  0  0  0  0  0
   43.7766   62.3584   85.4693 H   0  0  0  0  0  0  0  0  0  0  0  0
   42.3648   63.4749   85.4606 H   0  0  0  0  0  0  0  0  0  0  0  0
   42.0055   61.5532   87.0038 H   0  0  0  0  0  0  0  0  0  0  0  0
   41.7379   59.2748   86.0274 H   0  0  0  0  0  0  0  0  0  0  0  0
   43.4083   59.9051   85.7932 H   0  0  0  0  0  0  0  0  0  0  0  0
   40.5990   59.8852   82.5477 H   0  0  0  0  0  0  0  0  0  0  0  0
   40.1346   59.2658   84.1725 H   0  0  0  0  0  0  0  0  0  0  0  0
   40.0734   62.6020   85.8307 H   0  0  0  0  0  0  0  0  0  0  0  0
   39.8074   60.8428   86.0685 H   0  0  0  0  0  0  0  0  0  0  0  0
   39.1938   61.5372   83.7566 H   0  0  0  0  0  0  0  0  0  0  0  0
   40.7627   63.4718   83.6092 H   0  0  0  0  0  0  0  0  0  0  0  0
   40.9642   62.3476   82.2200 H   0  0  0  0  0  0  0  0  0  0  0  0
   43.1792   62.4286   78.7396 H   0  0  0  0  0  0  0  0  0  0  0  0
   48.2177   59.5862   78.0993 H   0  0  0  0  0  0  0  0  0  0  0  0
   46.9986   58.5357   77.3012 H   0  0  0  0  0  0  0  0  0  0  0  0
   46.7850   60.3192   77.3012 H   0  0  0  0  0  0  0  0  0  0  0  0
 24  5  1  0
 26 25  1  0
  5 21  1  0
  5  4  2  0
 25  7  1  0
 21  1  2  0
  4  3  1  0
  7  6  1  0
  7  8  1  0
  1  9  1  0
  3  9  2  0
  6 22  1  0
  8 22  1  0
  9 12  1  0
 22  2  1  0
  2 10  1  0
  2 23  2  0
 12 10  1  0
 12 13  1  0
 12 11  1  0
 20 13  1  0
 20 19  1  0
 17 11  1  0
 17 19  1  0
 13 14  1  0
 11 16  1  0
 19 18  1  0
 14 15  1  0
 16 15  1  0
 18 15  1  0
  1 27  1  0
  3 28  1  0
  4 29  1  0
  6 30  1  0
  6 31  1  0
  7 32  1  0
  8 33  1  0
  8 34  1  0
 10 35  1  0
 10 36  1  0
 11 37  1  0
 13 38  1  0
 14 39  1  0
 14 40  1  0
 15 41  1  0
 16 42  1  0
 16 43  1  0
 17 44  1  0
 17 45  1  0
 18 46  1  0
 18 47  1  0
 19 48  1  0
 20 49  1  0
 20 50  1  0
 21 51  1  0
 26 52  1  0
 26 53  1  0
 26 54  1  0
A    1
C13
A    2
C18
A    3
C17
A    4
C16
A    5
C15
A    6
C22
A    7
C23
A    8
C24
A    9
C11
A   10
C12
A   11
C1
A   12
C2
A   13
C3
A   14
C4
A   15
C5
A   16
C6
A   17
C7
A   18
C8
A   19
C9
A   20
C10
A   21
C14
A   22
N19
A   23
O20
A   24
F21
A   25
O25
A   26
C26
M  END
