5PGV_8K7_A_302
     RDKit          3D

 55 59  0  0  0  0  0  0  0  0999 V2000
   42.8950   63.7820   77.5040 C   0  0  0  0  0  0  0  0  0  0  0  0
   44.7980   61.1340   79.5240 C   0  0  0  0  0  0  0  0  0  0  0  0
   42.2640   61.5140   77.8970 C   0  0  0  0  0  0  0  0  0  0  0  0
   41.0060   61.9280   78.3100 C   0  0  0  0  0  0  0  0  0  0  0  0
   40.7280   63.2700   78.2940 C   0  0  0  0  0  0  0  0  0  0  0  0
   49.2370   60.6920   75.7110 C   0  0  0  0  0  0  0  0  0  0  0  0
   43.8760   63.1400   80.8610 C   0  0  0  0  0  0  0  0  0  0  0  0
   43.2340   62.4300   77.4880 C   0  0  0  0  0  0  0  0  0  0  0  0
   45.4380   61.9990   78.4680 C   0  0  0  0  0  0  0  0  0  0  0  0
   45.3910   62.9370   76.1140 C   0  0  0  0  0  0  0  0  0  0  0  0
   44.6840   61.9660   77.1080 C   0  0  0  0  0  0  0  0  0  0  0  0
   44.7270   60.5810   76.3920 C   0  0  0  0  0  0  0  0  0  0  0  0
   43.9470   60.6260   75.0680 C   0  0  0  0  0  0  0  0  0  0  0  0
   44.6100   61.6310   74.1260 C   0  0  0  0  0  0  0  0  0  0  0  0
   44.6190   63.0130   74.7880 C   0  0  0  0  0  0  0  0  0  0  0  0
   46.8380   62.5100   75.8200 C   0  0  0  0  0  0  0  0  0  0  0  0
   46.0640   61.1890   73.8500 C   0  0  0  0  0  0  0  0  0  0  0  0
   46.8250   61.1320   75.1720 C   0  0  0  0  0  0  0  0  0  0  0  0
   46.1660   60.1260   76.1070 C   0  0  0  0  0  0  0  0  0  0  0  0
   41.6370   64.2100   77.8940 C   0  0  0  0  0  0  0  0  0  0  0  0
   44.0870   61.7360   80.5030 N   0  0  0  0  0  0  0  0  0  0  0  0
   44.9300   59.9220   79.4700 O   0  0  0  0  0  0  0  0  0  0  0  0
   39.4990   63.6870   78.7040 F   0  0  0  0  0  0  0  0  0  0  0  0
   48.1350   60.6670   74.7880 O   0  0  0  0  0  0  0  0  0  0  0  0
   42.5920   62.7000   81.6190 C   0  0  0  0  0  0  0  0  0  0  0  0
   43.1140   61.2270   81.4720 C   0  0  0  0  0  0  0  0  0  0  0  0
   42.6660   63.2190   82.9480 O   0  0  0  0  0  0  0  0  0  0  0  0
   43.6449   64.5270   77.1995 H   0  0  0  0  0  0  0  0  0  0  0  0
   42.5021   60.4401   77.8918 H   0  0  0  0  0  0  0  0  0  0  0  0
   40.2520   61.1989   78.6414 H   0  0  0  0  0  0  0  0  0  0  0  0
   48.8524   60.6833   76.7415 H   0  0  0  0  0  0  0  0  0  0  0  0
   49.8712   59.8080   75.5488 H   0  0  0  0  0  0  0  0  0  0  0  0
   49.8305   61.6038   75.5488 H   0  0  0  0  0  0  0  0  0  0  0  0
   44.6596   63.5704   81.5019 H   0  0  0  0  0  0  0  0  0  0  0  0
   43.8477   63.9290   80.0951 H   0  0  0  0  0  0  0  0  0  0  0  0
   46.4676   61.6477   78.3053 H   0  0  0  0  0  0  0  0  0  0  0  0
   45.4077   63.0362   78.8331 H   0  0  0  0  0  0  0  0  0  0  0  0
   45.4079   63.9248   76.5978 H   0  0  0  0  0  0  0  0  0  0  0  0
   44.2590   59.8580   77.0763 H   0  0  0  0  0  0  0  0  0  0  0  0
   42.9092   60.9342   75.2630 H   0  0  0  0  0  0  0  0  0  0  0  0
   43.9496   59.6285   74.6043 H   0  0  0  0  0  0  0  0  0  0  0  0
   44.0511   61.6764   73.1797 H   0  0  0  0  0  0  0  0  0  0  0  0
   45.1076   63.7372   74.1196 H   0  0  0  0  0  0  0  0  0  0  0  0
   43.5852   63.3349   74.9820 H   0  0  0  0  0  0  0  0  0  0  0  0
   47.4092   62.4707   76.7592 H   0  0  0  0  0  0  0  0  0  0  0  0
   47.3097   63.2359   75.1414 H   0  0  0  0  0  0  0  0  0  0  0  0
   46.0644   60.1940   73.3810 H   0  0  0  0  0  0  0  0  0  0  0  0
   46.5488   61.9074   73.1726 H   0  0  0  0  0  0  0  0  0  0  0  0
   46.1524   59.1340   75.6319 H   0  0  0  0  0  0  0  0  0  0  0  0
   46.7315   60.0660   77.0486 H   0  0  0  0  0  0  0  0  0  0  0  0
   41.3758   65.2785   77.8823 H   0  0  0  0  0  0  0  0  0  0  0  0
   41.5624   62.9485   81.3221 H   0  0  0  0  0  0  0  0  0  0  0  0
   42.3806   60.5197   81.0573 H   0  0  0  0  0  0  0  0  0  0  0  0
   43.4233   60.6331   82.3448 H   0  0  0  0  0  0  0  0  0  0  0  0
   42.5605   62.4793   83.5975 H   0  0  0  0  0  0  0  0  0  0  0  0
 17 14  1  0
 17 18  1  0
 14 15  1  0
 14 13  1  0
 24 18  1  0
 24  6  1  0
 15 10  1  0
 13 12  1  0
 18 16  1  0
 18 19  1  0
 16 10  1  0
 19 12  1  0
 10 11  1  0
 12 11  1  0
 11  8  1  0
 11  9  1  0
  8  1  2  0
  8  3  1  0
  1 20  1  0
 20  5  2  0
  3  4  2  0
  5  4  1  0
  5 23  1  0
  9  2  1  0
 22  2  2  0
  2 21  1  0
 21  7  1  0
 21 26  1  0
  7 25  1  0
 26 25  1  0
 25 27  1  0
  1 28  1  0
  3 29  1  0
  4 30  1  0
  6 31  1  0
  6 32  1  0
  6 33  1  0
  7 34  1  0
  7 35  1  0
  9 36  1  0
  9 37  1  0
 10 38  1  0
 12 39  1  0
 13 40  1  0
 13 41  1  0
 14 42  1  0
 15 43  1  0
 15 44  1  0
 16 45  1  0
 16 46  1  0
 17 47  1  0
 17 48  1  0
 19 49  1  0
 19 50  1  0
 20 51  1  0
 25 52  1  0
 26 53  1  0
 26 54  1  0
 27 55  1  0
A    1
C13
A    2
C18
A    3
C17
A    4
C16
A    5
C15
A    6
C23
A    7
C24
A    8
C11
A    9
C12
A   10
C1
A   11
C2
A   12
C3
A   13
C4
A   14
C5
A   15
C6
A   16
C7
A   17
C8
A   18
C9
A   19
C10
A   20
C14
A   21
N19
A   22
O20
A   23
F21
A   24
O22
A   25
C25
A   26
C26
A   27
O27
M  END
