5PGW_8KA_A_302
     RDKit          3D

 62 67  0  0  0  0  0  0  0  0999 V2000
   44.1220   61.5250   80.1090 N   0  0  0  0  0  0  0  0  0  0  0  0
   44.8700   60.7920   79.2570 C   0  0  0  0  0  0  0  0  0  0  0  0
   43.9460   62.9660   80.3080 C   0  0  0  0  0  0  0  0  0  0  0  0
   42.7230   62.6420   81.2290 C   0  0  0  0  0  0  0  0  0  0  0  0
   43.2530   61.1460   81.2240 C   0  0  0  0  0  0  0  0  0  0  0  0
   43.2910   63.2570   76.6590 C   0  0  0  0  0  0  0  0  0  0  0  0
   41.9920   63.7100   76.8200 C   0  0  0  0  0  0  0  0  0  0  0  0
   40.9660   62.8470   77.1990 C   0  0  0  0  0  0  0  0  0  0  0  0
   41.2930   61.5040   77.3900 C   0  0  0  0  0  0  0  0  0  0  0  0
   42.5910   61.0490   77.2140 C   0  0  0  0  0  0  0  0  0  0  0  0
   43.6200   61.9160   76.8500 C   0  0  0  0  0  0  0  0  0  0  0  0
   45.6470   61.5100   78.1780 C   0  0  0  0  0  0  0  0  0  0  0  0
   38.0660   64.9610   78.4150 C   0  0  0  0  0  0  0  0  0  0  0  0
   45.1080   61.4130   76.7180 C   0  0  0  0  0  0  0  0  0  0  0  0
   46.8600   60.3130   73.7520 C   0  0  0  0  0  0  0  0  0  0  0  0
   45.9610   62.2950   75.7550 C   0  0  0  0  0  0  0  0  0  0  0  0
   45.1770   59.9690   76.1380 C   0  0  0  0  0  0  0  0  0  0  0  0
   45.3970   62.2490   74.3280 C   0  0  0  0  0  0  0  0  0  0  0  0
   44.5940   59.9210   74.7170 C   0  0  0  0  0  0  0  0  0  0  0  0
   45.4190   60.8170   73.7900 C   0  0  0  0  0  0  0  0  0  0  0  0
   46.6290   59.4690   76.0790 C   0  0  0  0  0  0  0  0  0  0  0  0
   47.4540   60.3630   75.1580 C   0  0  0  0  0  0  0  0  0  0  0  0
   47.4110   61.7970   75.6900 C   0  0  0  0  0  0  0  0  0  0  0  0
   44.9890   59.5860   79.3860 O   0  0  0  0  0  0  0  0  0  0  0  0
   42.8060   63.2240   82.5420 O   0  0  0  0  0  0  0  0  0  0  0  0
   39.5830   63.3480   77.4230 C   0  0  0  0  0  0  0  0  0  0  0  0
   39.3510   64.5180   78.1500 C   0  0  0  0  0  0  0  0  0  0  0  0
   37.0160   64.2190   77.9410 C   0  0  0  0  0  0  0  0  0  0  0  0
   37.1850   63.0880   77.1920 C   0  0  0  0  0  0  0  0  0  0  0  0
   38.4750   62.6510   76.9410 C   0  0  0  0  0  0  0  0  0  0  0  0
   35.7490   64.5810   78.2950 F   0  0  0  0  0  0  0  0  0  0  0  0
   47.6360   61.0830   72.8400 O   0  0  0  0  0  0  0  0  0  0  0  0
   44.7840   63.4610   80.8206 H   0  0  0  0  0  0  0  0  0  0  0  0
   43.8527   63.6538   79.4546 H   0  0  0  0  0  0  0  0  0  0  0  0
   41.6992   62.9308   80.9489 H   0  0  0  0  0  0  0  0  0  0  0  0
   42.4925   60.3907   80.9767 H   0  0  0  0  0  0  0  0  0  0  0  0
   43.6516   60.6705   82.1323 H   0  0  0  0  0  0  0  0  0  0  0  0
   44.0790   63.9699   76.3747 H   0  0  0  0  0  0  0  0  0  0  0  0
   41.7660   64.7722   76.6452 H   0  0  0  0  0  0  0  0  0  0  0  0
   40.5070   60.7935   77.6855 H   0  0  0  0  0  0  0  0  0  0  0  0
   42.8132   59.9823   77.3647 H   0  0  0  0  0  0  0  0  0  0  0  0
   46.6684   61.1016   78.1801 H   0  0  0  0  0  0  0  0  0  0  0  0
   45.5664   62.5761   78.4365 H   0  0  0  0  0  0  0  0  0  0  0  0
   37.8930   65.8827   78.9899 H   0  0  0  0  0  0  0  0  0  0  0  0
   46.8711   59.2708   73.4003 H   0  0  0  0  0  0  0  0  0  0  0  0
   45.9268   63.3209   76.1504 H   0  0  0  0  0  0  0  0  0  0  0  0
   44.5876   59.3238   76.8061 H   0  0  0  0  0  0  0  0  0  0  0  0
   46.0084   62.8902   73.6761 H   0  0  0  0  0  0  0  0  0  0  0  0
   44.3571   62.6074   74.3443 H   0  0  0  0  0  0  0  0  0  0  0  0
   43.5529   60.2756   74.7368 H   0  0  0  0  0  0  0  0  0  0  0  0
   44.6249   58.8861   74.3455 H   0  0  0  0  0  0  0  0  0  0  0  0
   44.9944   60.7946   72.7755 H   0  0  0  0  0  0  0  0  0  0  0  0
   46.6436   58.4384   75.6946 H   0  0  0  0  0  0  0  0  0  0  0  0
   47.0611   59.4973   77.0902 H   0  0  0  0  0  0  0  0  0  0  0  0
   48.4973   60.0160   75.1246 H   0  0  0  0  0  0  0  0  0  0  0  0
   47.8499   61.8238   76.6983 H   0  0  0  0  0  0  0  0  0  0  0  0
   47.9841   62.4481   75.0135 H   0  0  0  0  0  0  0  0  0  0  0  0
   42.7048   62.5141   83.2246 H   0  0  0  0  0  0  0  0  0  0  0  0
   40.2078   65.1002   78.5201 H   0  0  0  0  0  0  0  0  0  0  0  0
   36.3174   62.5383   76.7982 H   0  0  0  0  0  0  0  0  0  0  0  0
   38.6289   61.7362   76.3499 H   0  0  0  0  0  0  0  0  0  0  0  0
   48.2403   61.6826   73.3453 H   0  0  0  0  0  0  0  0  0  0  0  0
 32 15  1  0
 15 20  1  0
 15 22  1  0
 20 18  1  0
 20 19  1  0
 18 16  1  0
 19 17  1  0
 22 23  1  0
 22 21  1  0
 23 16  1  0
 16 14  1  0
 21 17  1  0
 17 14  1  0
  6  7  2  0
  6 11  1  0
 14 11  1  0
 14 12  1  0
  7  8  1  0
 11 10  2  0
 30 29  2  0
 30 26  1  0
 29 28  1  0
  8  9  2  0
  8 26  1  0
 10  9  1  0
 26 27  2  0
 28 31  1  0
 28 13  2  0
 27 13  1  0
 12  2  1  0
  2 24  2  0
  2  1  1  0
  1  3  1  0
  1  5  1  0
  3  4  1  0
  5  4  1  0
  4 25  1  0
  3 33  1  0
  3 34  1  0
  4 35  1  0
  5 36  1  0
  5 37  1  0
  6 38  1  0
  7 39  1  0
  9 40  1  0
 10 41  1  0
 12 42  1  0
 12 43  1  0
 13 44  1  0
 15 45  1  0
 16 46  1  0
 17 47  1  0
 18 48  1  0
 18 49  1  0
 19 50  1  0
 19 51  1  0
 20 52  1  0
 21 53  1  0
 21 54  1  0
 22 55  1  0
 23 56  1  0
 23 57  1  0
 25 58  1  0
 27 59  1  0
 29 60  1  0
 30 61  1  0
 32 62  1  0
A    1
N14
A    2
C13
A    3
C18
A    4
C17
A    5
C16
A    6
C20
A    7
C21
A    8
C22
A    9
C23
A   10
C24
A   11
C11
A   12
C12
A   13
C27
A   14
C1
A   15
C2
A   16
C3
A   17
C4
A   18
C5
A   19
C6
A   20
C7
A   21
C8
A   22
C9
A   23
C10
A   24
O15
A   25
O19
A   26
C25
A   27
C26
A   28
C28
A   29
C29
A   30
C30
A   31
F31
A   32
O32
M  END
