5Q0F_9FA_A_301
     RDKit          3D

 71 75  0  0  0  0  0  0  0  0999 V2000
   37.7560  -16.9930   28.0380 C   0  0  0  0  0  0  0  0  0  0  0  0
   41.1880  -20.7750   28.6380 C   0  0  0  0  0  0  0  0  0  0  0  0
   39.6910  -20.8870   28.5600 C   0  0  0  0  0  0  0  0  0  0  0  0
   39.0370  -18.6870   29.4250 C   0  0  0  0  0  0  0  0  0  0  0  0
   39.2830  -21.9100   27.4870 C   0  0  0  0  0  0  0  0  0  0  0  0
   44.2990  -21.2340   30.2640 C   0  0  0  0  0  0  0  0  0  0  0  0
   45.4110  -20.3910   30.3710 C   0  0  0  0  0  0  0  0  0  0  0  0
   46.4360  -20.6730   31.2580 C   0  0  0  0  0  0  0  0  0  0  0  0
   46.3530  -21.7850   32.0960 C   0  0  0  0  0  0  0  0  0  0  0  0
   45.2590  -22.6420   31.9890 C   0  0  0  0  0  0  0  0  0  0  0  0
   41.9820  -25.1810   29.9670 C   0  0  0  0  0  0  0  0  0  0  0  0
   43.2660  -20.5190   28.0020 C   0  0  0  0  0  0  0  0  0  0  0  0
   41.0300  -25.2180   28.7540 C   0  0  0  0  0  0  0  0  0  0  0  0
   33.8070  -14.0650   29.6160 Cl  0  0  0  0  0  0  0  0  0  0  0  0
   36.7460  -13.4950   26.9670 C   0  0  0  0  0  0  0  0  0  0  0  0
   35.6290  -13.2990   27.7680 C   0  0  0  0  0  0  0  0  0  0  0  0
   35.2200  -14.3080   28.6180 C   0  0  0  0  0  0  0  0  0  0  0  0
   35.8930  -15.5130   28.6840 C   0  0  0  0  0  0  0  0  0  0  0  0
   37.0180  -15.7290   27.8690 C   0  0  0  0  0  0  0  0  0  0  0  0
   37.4330  -14.7060   26.9970 C   0  0  0  0  0  0  0  0  0  0  0  0
   38.5230  -14.9030   26.0940 N   0  0  0  0  0  0  0  0  0  0  0  0
   38.5900  -14.9040   24.7580 C   0  0  0  0  0  0  0  0  0  0  0  0
   39.7910  -15.2420   24.3770 N   0  0  0  0  0  0  0  0  0  0  0  0
   40.4940  -15.4350   25.5200 N   0  0  0  0  0  0  0  0  0  0  0  0
   39.7470  -15.2410   26.5630 N   0  0  0  0  0  0  0  0  0  0  0  0
   38.2980  -17.4260   29.1820 C   0  0  0  0  0  0  0  0  0  0  0  0
   39.6560  -18.8900   30.4770 O   0  0  0  0  0  0  0  0  0  0  0  0
   44.2420  -22.3890   31.0760 C   0  0  0  0  0  0  0  0  0  0  0  0
   41.9710  -20.4520   27.5860 N   0  0  0  0  0  0  0  0  0  0  0  0
   43.2290  -20.8890   29.3150 C   0  0  0  0  0  0  0  0  0  0  0  0
   41.9040  -21.0380   29.7110 N   0  0  0  0  0  0  0  0  0  0  0  0
   43.1770  -23.3120   30.9270 N   0  0  0  0  0  0  0  0  0  0  0  0
   40.0590  -23.2120   27.5730 C   0  0  0  0  0  0  0  0  0  0  0  0
   40.2070  -23.9600   28.6590 C   0  0  0  0  0  0  0  0  0  0  0  0
   43.0370  -24.1000   29.8430 C   0  0  0  0  0  0  0  0  0  0  0  0
   47.3570  -22.1820   33.0190 N   0  0  0  0  0  0  0  0  0  0  0  0
   48.6390  -21.7280   33.0980 C   0  0  0  0  0  0  0  0  0  0  0  0
   49.2240  -22.2140   34.2140 O   0  0  0  0  0  0  0  0  0  0  0  0
   49.1980  -21.0190   32.2870 O   0  0  0  0  0  0  0  0  0  0  0  0
   50.6670  -22.0470   34.3160 C   0  0  0  0  0  0  0  0  0  0  0  0
   43.7070  -23.9650   28.8190 O   0  0  0  0  0  0  0  0  0  0  0  0
   40.1850  -26.4930   28.7870 C   0  0  0  0  0  0  0  0  0  0  0  0
   39.0360  -19.5820   28.4130 N   0  0  0  0  0  0  0  0  0  0  0  0
   37.8708  -17.6332   27.1509 H   0  0  0  0  0  0  0  0  0  0  0  0
   39.3242  -21.2722   29.5229 H   0  0  0  0  0  0  0  0  0  0  0  0
   39.4566  -21.4648   26.4962 H   0  0  0  0  0  0  0  0  0  0  0  0
   38.2226  -22.1510   27.6530 H   0  0  0  0  0  0  0  0  0  0  0  0
   45.4715  -19.4912   29.7412 H   0  0  0  0  0  0  0  0  0  0  0  0
   47.3186  -20.0180   31.3020 H   0  0  0  0  0  0  0  0  0  0  0  0
   45.1997  -23.5300   32.6355 H   0  0  0  0  0  0  0  0  0  0  0  0
   41.3898  -24.9937   30.8748 H   0  0  0  0  0  0  0  0  0  0  0  0
   42.5001  -26.1502   30.0154 H   0  0  0  0  0  0  0  0  0  0  0  0
   44.1635  -20.3154   27.3994 H   0  0  0  0  0  0  0  0  0  0  0  0
   41.6268  -25.2500   27.8306 H   0  0  0  0  0  0  0  0  0  0  0  0
   37.0908  -12.6879   26.3039 H   0  0  0  0  0  0  0  0  0  0  0  0
   35.0752  -12.3495   27.7261 H   0  0  0  0  0  0  0  0  0  0  0  0
   35.5499  -16.3002   29.3715 H   0  0  0  0  0  0  0  0  0  0  0  0
   37.7578  -14.6570   24.0824 H   0  0  0  0  0  0  0  0  0  0  0  0
   38.1802  -16.7625   30.0514 H   0  0  0  0  0  0  0  0  0  0  0  0
   41.6475  -20.2007   26.6410 H   0  0  0  0  0  0  0  0  0  0  0  0
   42.4789  -23.3837   31.6809 H   0  0  0  0  0  0  0  0  0  0  0  0
   40.5426  -23.5677   26.6512 H   0  0  0  0  0  0  0  0  0  0  0  0
   39.6830  -23.6329   29.5692 H   0  0  0  0  0  0  0  0  0  0  0  0
   47.0840  -22.8964   33.7090 H   0  0  0  0  0  0  0  0  0  0  0  0
   50.9582  -22.0133   35.3762 H   0  0  0  0  0  0  0  0  0  0  0  0
   51.1697  -22.8930   33.8244 H   0  0  0  0  0  0  0  0  0  0  0  0
   50.9632  -21.1086   33.8244 H   0  0  0  0  0  0  0  0  0  0  0  0
   39.9948  -26.7799   29.8318 H   0  0  0  0  0  0  0  0  0  0  0  0
   39.2277  -26.3117   28.2765 H   0  0  0  0  0  0  0  0  0  0  0  0
   40.7250  -27.3041   28.2765 H   0  0  0  0  0  0  0  0  0  0  0  0
   38.5691  -19.3452   27.5260 H   0  0  0  0  0  0  0  0  0  0  0  0
 23 22  2  0
 23 24  1  0
 22 21  1  0
 24 25  2  0
 21 25  1  0
 21 20  1  0
 15 20  2  0
 15 16  1  0
 20 19  1  0
  5 33  1  0
  5  3  1  0
 33 34  2  0
 29 12  1  0
 29  2  1  0
 16 17  2  0
 19  1  1  0
 19 18  2  0
 12 30  2  0
  1 26  2  0
 43  3  1  0
 43  4  1  0
  3  2  1  0
 17 18  1  0
 17 14  1  0
  2 31  2  0
 34 13  1  0
 13 42  1  0
 13 11  1  0
 41 35  2  0
 26  4  1  0
 30 31  1  0
 30  6  1  0
  4 27  2  0
 35 11  1  0
 35 32  1  0
  6  7  1  0
  6 28  2  0
  7  8  2  0
 32 28  1  0
 28 10  1  0
  8  9  1  0
 10  9  2  0
  9 36  1  0
 39 37  2  0
 36 37  1  0
 37 38  1  0
 38 40  1  0
  1 44  1  0
  3 45  1  0
  5 46  1  0
  5 47  1  0
  7 48  1  0
  8 49  1  0
 10 50  1  0
 11 51  1  0
 11 52  1  0
 12 53  1  0
 13 54  1  0
 15 55  1  0
 16 56  1  0
 18 57  1  0
 22 58  1  0
 26 59  1  0
 29 60  1  0
 32 61  1  0
 33 62  1  0
 34 63  1  0
 36 64  1  0
 40 65  1  0
 40 66  1  0
 40 67  1  0
 42 68  1  0
 42 69  1  0
 42 70  1  0
 43 71  1  0
A    1
C13
A    2
C18
A    3
C17
A    4
C15
A    5
C19
A    6
C20
A    7
C21
A    8
C22
A    9
C23
A   10
C24
A   11
C34
A   12
C27
A   13
C33
A   14
CL1
A   15
C2
A   16
C3
A   17
C4
A   18
C5
A   19
C6
A   20
C7
A   21
N8
A   22
C9
A   23
N10
A   24
N11
A   25
N12
A   26
C14
A   27
O16
A   28
C25
A   29
N26
A   30
C28
A   31
N29
A   32
N30
A   33
C31
A   34
C32
A   35
C35
A   36
N36
A   37
C37
A   38
O38
A   39
O39
A   40
C40
A   41
O41
A   42
C42
A   43
N43
M  END
