5Q0N_9L4_A_501
     RDKit          3D

 61 65  0  0  0  0  0  0  0  0999 V2000
   23.1390   18.0720    3.5530 N   0  0  0  0  0  0  0  0  0  0  0  0
   22.8210   16.3700    2.1240 N   0  0  0  0  0  0  0  0  0  0  0  0
   24.3670   17.4450    3.4230 C   0  0  0  0  0  0  0  0  0  0  0  0
   24.1610   16.3980    2.5430 C   0  0  0  0  0  0  0  0  0  0  0  0
   23.7590   20.4580    4.0640 C   0  0  0  0  0  0  0  0  0  0  0  0
   22.8020   19.2830    4.4160 C   0  0  0  0  0  0  0  0  0  0  0  0
   25.5940   17.7200    4.0070 C   0  0  0  0  0  0  0  0  0  0  0  0
   25.2290   15.5690    2.2070 C   0  0  0  0  0  0  0  0  0  0  0  0
   27.5300   24.6340    0.6310 C   0  0  0  0  0  0  0  0  0  0  0  0
   26.4510   15.8450    2.7860 C   0  0  0  0  0  0  0  0  0  0  0  0
   24.4640   22.8450    1.9740 C   0  0  0  0  0  0  0  0  0  0  0  0
   26.2870   21.2720    1.9360 C   0  0  0  0  0  0  0  0  0  0  0  0
   27.1140   22.2700    1.4270 C   0  0  0  0  0  0  0  0  0  0  0  0
   19.8130   16.9100    3.1000 C   0  0  0  0  0  0  0  0  0  0  0  0
   27.0220   25.8220    0.6680 O   0  0  0  0  0  0  0  0  0  0  0  0
   28.6530   24.4000    0.1800 O   0  0  0  0  0  0  0  0  0  0  0  0
   26.6260   23.5520    1.1890 C   0  0  0  0  0  0  0  0  0  0  0  0
   24.9440   21.5440    2.2160 C   0  0  0  0  0  0  0  0  0  0  0  0
   24.0810   20.5510    2.7450 N   0  0  0  0  0  0  0  0  0  0  0  0
   24.1770   21.2220    4.9230 O   0  0  0  0  0  0  0  0  0  0  0  0
   22.8370   18.9090    5.9220 C   0  0  0  0  0  0  0  0  0  0  0  0
   21.9730   19.8420    6.7680 C   0  0  0  0  0  0  0  0  0  0  0  0
   22.1040   19.5200    8.2690 C   0  0  0  0  0  0  0  0  0  0  0  0
   21.7090   18.0640    8.5760 C   0  0  0  0  0  0  0  0  0  0  0  0
   22.4800   17.0660    7.6920 C   0  0  0  0  0  0  0  0  0  0  0  0
   22.3860   17.4570    6.1710 C   0  0  0  0  0  0  0  0  0  0  0  0
   22.2510   17.3840    2.7470 C   0  0  0  0  0  0  0  0  0  0  0  0
   27.5110   15.0680    2.4890 F   0  0  0  0  0  0  0  0  0  0  0  0
   26.6250   16.8980    3.6660 C   0  0  0  0  0  0  0  0  0  0  0  0
   27.8460   17.1190    4.2030 F   0  0  0  0  0  0  0  0  0  0  0  0
   20.8220   17.7420    2.6090 C   0  0  0  0  0  0  0  0  0  0  0  0
   18.4760   17.2650    2.9690 C   0  0  0  0  0  0  0  0  0  0  0  0
   18.1540   18.4590    2.3520 C   0  0  0  0  0  0  0  0  0  0  0  0
   16.4820   18.9160    2.1900 Cl  0  0  0  0  0  0  0  0  0  0  0  0
   19.1310   19.3040    1.8630 C   0  0  0  0  0  0  0  0  0  0  0  0
   20.4610   18.9420    1.9940 C   0  0  0  0  0  0  0  0  0  0  0  0
   22.8020   23.2410    2.3040 Cl  0  0  0  0  0  0  0  0  0  0  0  0
   25.2870   23.8340    1.4670 C   0  0  0  0  0  0  0  0  0  0  0  0
   21.7759   19.6175    4.2033 H   0  0  0  0  0  0  0  0  0  0  0  0
   25.7276   18.5571    4.7081 H   0  0  0  0  0  0  0  0  0  0  0  0
   25.1034   14.7285    1.5085 H   0  0  0  0  0  0  0  0  0  0  0  0
   26.6917   20.2656    2.1186 H   0  0  0  0  0  0  0  0  0  0  0  0
   28.1680   22.0422    1.2098 H   0  0  0  0  0  0  0  0  0  0  0  0
   20.0795   15.9646    3.5952 H   0  0  0  0  0  0  0  0  0  0  0  0
   26.8371   26.2544    1.5392 H   0  0  0  0  0  0  0  0  0  0  0  0
   23.6756   19.8622    2.0953 H   0  0  0  0  0  0  0  0  0  0  0  0
   23.8886   19.0172    6.2261 H   0  0  0  0  0  0  0  0  0  0  0  0
   22.2921   20.8804    6.5953 H   0  0  0  0  0  0  0  0  0  0  0  0
   20.9221   19.7033    6.4739 H   0  0  0  0  0  0  0  0  0  0  0  0
   23.1477   19.6788    8.5778 H   0  0  0  0  0  0  0  0  0  0  0  0
   21.4236   20.1837    8.8226 H   0  0  0  0  0  0  0  0  0  0  0  0
   20.6309   17.9414    8.3951 H   0  0  0  0  0  0  0  0  0  0  0  0
   21.9587   17.8553    9.6267 H   0  0  0  0  0  0  0  0  0  0  0  0
   22.0539   16.0614    7.8305 H   0  0  0  0  0  0  0  0  0  0  0  0
   23.5387   17.0847    7.9901 H   0  0  0  0  0  0  0  0  0  0  0  0
   21.3430   17.3468    5.8393 H   0  0  0  0  0  0  0  0  0  0  0  0
   23.0544   16.7908    5.6059 H   0  0  0  0  0  0  0  0  0  0  0  0
   17.6841   16.6042    3.3514 H   0  0  0  0  0  0  0  0  0  0  0  0
   18.8563   20.2514    1.3762 H   0  0  0  0  0  0  0  0  0  0  0  0
   21.2449   19.6100    1.6077 H   0  0  0  0  0  0  0  0  0  0  0  0
   24.8871   24.8421    1.2829 H   0  0  0  0  0  0  0  0  0  0  0  0
 16  9  2  0
  9 15  1  0
  9 17  1  0
 17 13  2  0
 17 38  1  0
 13 12  1  0
 38 11  2  0
 35 36  2  0
 35 33  1  0
 12 18  2  0
 11 18  1  0
 11 37  1  0
 36 31  1  0
  2  4  1  0
  2 27  2  0
 34 33  1  0
  8  4  2  0
  8 10  1  0
 18 19  1  0
 33 32  2  0
 28 10  1  0
  4  3  1  0
 31 27  1  0
 31 14  2  0
 19  5  1  0
 27  1  1  0
 10 29  2  0
 32 14  1  0
  3  1  1  0
  3  7  2  0
  1  6  1  0
 29  7  1  0
 29 30  1  0
  5  6  1  0
  5 20  2  0
  6 21  1  0
 21 26  1  0
 21 22  1  0
 26 25  1  0
 22 23  1  0
 25 24  1  0
 23 24  1  0
  6 39  1  0
  7 40  1  0
  8 41  1  0
 12 42  1  0
 13 43  1  0
 14 44  1  0
 15 45  1  0
 19 46  1  0
 21 47  1  0
 22 48  1  0
 22 49  1  0
 23 50  1  0
 23 51  1  0
 24 52  1  0
 24 53  1  0
 25 54  1  0
 25 55  1  0
 26 56  1  0
 26 57  1  0
 32 58  1  0
 35 59  1  0
 36 60  1  0
 38 61  1  0
A    1
N1
A    2
N3
A    3
C4
A    4
C5
A    5
C6
A    6
C7
A    7
C8
A    8
C10
A    9
C13
A   10
C15
A   11
C17
A   12
C21
A   13
C22
A   14
C24
A   15
O20
A   16
O29
A   17
C16
A   18
C12
A   19
N9
A   20
O19
A   21
C23
A   22
C34
A   23
C37
A   24
C38
A   25
C36
A   26
C35
A   27
C2
A   28
F27
A   29
C11
A   30
F26
A   31
C14
A   32
C32
A   33
C30
A   34
CL33
A   35
C31
A   36
C25
A   37
CL28
A   38
C18
M  END
