5Q0O_9L7_A_502
     RDKit          3D

 76 81  0  0  0  0  0  0  0  0999 V2000
   10.6860   26.5060    2.8580 C   0  0  0  0  0  0  0  0  0  0  0  0
   11.8040   25.7580    3.2460 C   0  0  0  0  0  0  0  0  0  0  0  0
   11.6710   24.7770    4.2260 C   0  0  0  0  0  0  0  0  0  0  0  0
   13.7810   24.9040    3.4850 C   0  0  0  0  0  0  0  0  0  0  0  0
   13.4160   23.1390    5.2750 C   0  0  0  0  0  0  0  0  0  0  0  0
   12.5580   21.6180    3.6010 N   0  0  0  0  0  0  0  0  0  0  0  0
   13.3190   23.4700    6.7770 C   0  0  0  0  0  0  0  0  0  0  0  0
   13.4260   25.3100    8.5610 C   0  0  0  0  0  0  0  0  0  0  0  0
   14.3190   22.6310    7.6050 C   0  0  0  0  0  0  0  0  0  0  0  0
   10.6450   20.8950    2.2640 C   0  0  0  0  0  0  0  0  0  0  0  0
    9.9620   19.7030    1.5670 C   0  0  0  0  0  0  0  0  0  0  0  0
   12.1540   18.5030    1.4420 C   0  0  0  0  0  0  0  0  0  0  0  0
   17.9310   23.9690    2.8800 C   0  0  0  0  0  0  0  0  0  0  0  0
   16.9750   23.7560    1.8830 C   0  0  0  0  0  0  0  0  0  0  0  0
    9.4610   26.2550    3.4670 C   0  0  0  0  0  0  0  0  0  0  0  0
    9.3400   25.2630    4.4590 C   0  0  0  0  0  0  0  0  0  0  0  0
   10.4560   24.5080    4.8510 C   0  0  0  0  0  0  0  0  0  0  0  0
   13.1300   25.8230    2.7900 N   0  0  0  0  0  0  0  0  0  0  0  0
   12.9670   24.2340    4.3720 N   0  0  0  0  0  0  0  0  0  0  0  0
   12.6820   21.8490    4.9110 C   0  0  0  0  0  0  0  0  0  0  0  0
   12.2440   21.0970    5.7760 O   0  0  0  0  0  0  0  0  0  0  0  0
   11.8920   20.4550    3.0390 C   0  0  0  0  0  0  0  0  0  0  0  0
   10.9400   18.9740    0.6530 C   0  0  0  0  0  0  0  0  0  0  0  0
   12.8610   19.6790    2.1330 C   0  0  0  0  0  0  0  0  0  0  0  0
   13.5570   24.9910    7.0660 C   0  0  0  0  0  0  0  0  0  0  0  0
   14.3990   24.4700    9.4010 C   0  0  0  0  0  0  0  0  0  0  0  0
   14.2230   22.9550    9.1310 C   0  0  0  0  0  0  0  0  0  0  0  0
   15.2180   24.6080    3.3130 C   0  0  0  0  0  0  0  0  0  0  0  0
   15.6390   24.0660    2.0980 C   0  0  0  0  0  0  0  0  0  0  0  0
   19.3810   23.6370    2.6640 C   0  0  0  0  0  0  0  0  0  0  0  0
   20.2330   24.2250    3.3180 O   0  0  0  0  0  0  0  0  0  0  0  0
   19.8130   22.5890    1.6610 C   0  0  0  0  0  0  0  0  0  0  0  0
   20.9760   22.7840    0.9050 C   0  0  0  0  0  0  0  0  0  0  0  0
   21.3890   21.8310   -0.0250 C   0  0  0  0  0  0  0  0  0  0  0  0
   20.6550   20.6730   -0.2110 C   0  0  0  0  0  0  0  0  0  0  0  0
   19.4990   20.4620    0.5330 C   0  0  0  0  0  0  0  0  0  0  0  0
   19.0780   21.4110    1.4660 C   0  0  0  0  0  0  0  0  0  0  0  0
   17.5100   24.5040    4.1020 C   0  0  0  0  0  0  0  0  0  0  0  0
   16.1720   24.8170    4.3190 C   0  0  0  0  0  0  0  0  0  0  0  0
   10.7751   27.2811    2.0826 H   0  0  0  0  0  0  0  0  0  0  0  0
   14.4949   23.0034    5.1092 H   0  0  0  0  0  0  0  0  0  0  0  0
   12.9593   22.3069    2.9489 H   0  0  0  0  0  0  0  0  0  0  0  0
   12.2926   23.2158    7.0801 H   0  0  0  0  0  0  0  0  0  0  0  0
   13.6447   26.3763    8.7198 H   0  0  0  0  0  0  0  0  0  0  0  0
   12.4001   25.0704    8.8773 H   0  0  0  0  0  0  0  0  0  0  0  0
   14.1001   21.5638    7.4530 H   0  0  0  0  0  0  0  0  0  0  0  0
   15.3359   22.8778    7.2660 H   0  0  0  0  0  0  0  0  0  0  0  0
   10.9392   21.6329    1.5031 H   0  0  0  0  0  0  0  0  0  0  0  0
    9.9315   21.3314    2.9784 H   0  0  0  0  0  0  0  0  0  0  0  0
    9.1164   20.0723    0.9682 H   0  0  0  0  0  0  0  0  0  0  0  0
    9.6100   19.0004    2.3367 H   0  0  0  0  0  0  0  0  0  0  0  0
   11.8272   17.7823    2.2061 H   0  0  0  0  0  0  0  0  0  0  0  0
   12.8622   18.0344    0.7428 H   0  0  0  0  0  0  0  0  0  0  0  0
   17.2855   23.3369    0.9145 H   0  0  0  0  0  0  0  0  0  0  0  0
    8.5767   26.8380    3.1703 H   0  0  0  0  0  0  0  0  0  0  0  0
    8.3633   25.0785    4.9302 H   0  0  0  0  0  0  0  0  0  0  0  0
   10.3739   23.7307    5.6250 H   0  0  0  0  0  0  0  0  0  0  0  0
   11.5759   19.7859    3.8529 H   0  0  0  0  0  0  0  0  0  0  0  0
   10.4381   18.1031    0.2062 H   0  0  0  0  0  0  0  0  0  0  0  0
   11.2732   19.6644   -0.1359 H   0  0  0  0  0  0  0  0  0  0  0  0
   13.6899   19.2909    2.7432 H   0  0  0  0  0  0  0  0  0  0  0  0
   13.2372   20.3633    1.3582 H   0  0  0  0  0  0  0  0  0  0  0  0
   14.5683   25.2640    6.7302 H   0  0  0  0  0  0  0  0  0  0  0  0
   12.7933   25.5675    6.5234 H   0  0  0  0  0  0  0  0  0  0  0  0
   15.4299   24.7601    9.1498 H   0  0  0  0  0  0  0  0  0  0  0  0
   14.1865   24.6573   10.4639 H   0  0  0  0  0  0  0  0  0  0  0  0
   13.2375   22.6377    9.5026 H   0  0  0  0  0  0  0  0  0  0  0  0
   15.0290   22.4157    9.6501 H   0  0  0  0  0  0  0  0  0  0  0  0
   14.9034   23.8822    1.3010 H   0  0  0  0  0  0  0  0  0  0  0  0
   21.5699   23.6990    1.0466 H   0  0  0  0  0  0  0  0  0  0  0  0
   22.3027   22.0005   -0.6136 H   0  0  0  0  0  0  0  0  0  0  0  0
   20.9844   19.9222   -0.9444 H   0  0  0  0  0  0  0  0  0  0  0  0
   18.9135   19.5425    0.3854 H   0  0  0  0  0  0  0  0  0  0  0  0
   18.1640   21.2336    2.0518 H   0  0  0  0  0  0  0  0  0  0  0  0
   18.2456   24.6793    4.9008 H   0  0  0  0  0  0  0  0  0  0  0  0
   15.8597   25.2322    5.2886 H   0  0  0  0  0  0  0  0  0  0  0  0
 34 35  1  0
 34 33  2  0
 35 36  2  0
 33 32  1  0
  1  2  2  0
  1 15  1  0
 14 29  2  0
 14 13  1  0
 36 37  1  0
 29 28  1  0
 18  2  1  0
 18  4  2  0
 32 37  2  0
 32 30  1  0
  2  3  1  0
 15 16  2  0
 23 11  1  0
 23 12  1  0
 30 13  1  0
 30 31  2  0
 13 38  2  0
 28  4  1  0
 28 39  2  0
  4 19  1  0
 11 10  1  0
 12 24  1  0
 10 22  1  0
 24 22  1  0
 38 39  1  0
  3 19  1  0
  3 17  2  0
 16 17  1  0
 19  5  1  0
 22  6  1  0
  6 20  1  0
  5 20  1  0
  5  7  1  0
 20 21  2  0
 25  7  1  0
 25  8  1  0
  7  9  1  0
  8 26  1  0
  9 27  1  0
 26 27  1  0
  1 40  1  0
  5 41  1  0
  6 42  1  0
  7 43  1  0
  8 44  1  0
  8 45  1  0
  9 46  1  0
  9 47  1  0
 10 48  1  0
 10 49  1  0
 11 50  1  0
 11 51  1  0
 12 52  1  0
 12 53  1  0
 14 54  1  0
 15 55  1  0
 16 56  1  0
 17 57  1  0
 22 58  1  0
 23 59  1  0
 23 60  1  0
 24 61  1  0
 24 62  1  0
 25 63  1  0
 25 64  1  0
 26 65  1  0
 26 66  1  0
 27 67  1  0
 27 68  1  0
 29 69  1  0
 33 70  1  0
 34 71  1  0
 35 72  1  0
 36 73  1  0
 37 74  1  0
 38 75  1  0
 39 76  1  0
A    1
C4
A    2
C5
A    3
C6
A    4
C8
A    5
C10
A    6
N12
A    7
C15
A    8
C17
A    9
C20
A   10
C21
A   11
C22
A   12
C24
A   13
C26
A   14
C28
A   15
C1
A   16
C2
A   17
C3
A   18
N9
A   19
N7
A   20
C11
A   21
O13
A   22
C14
A   23
C23
A   24
C25
A   25
C16
A   26
C18
A   27
C19
A   28
C36
A   29
C32
A   30
C27
A   31
O31
A   32
C30
A   33
C34
A   34
C37
A   35
C39
A   36
C38
A   37
C35
A   38
C29
A   39
C33
M  END
