5Q0P_9LA_A_501
     RDKit          3D

 61 65  0  0  0  0  0  0  0  0999 V2000
   13.2160   24.1850    3.9470 N   0  0  0  0  0  0  0  0  0  0  0  0
   13.4990   25.6820    2.2890 N   0  0  0  0  0  0  0  0  0  0  0  0
   11.9940   24.8660    3.8110 C   0  0  0  0  0  0  0  0  0  0  0  0
   12.1930   25.7860    2.7800 C   0  0  0  0  0  0  0  0  0  0  0  0
   10.7890   24.7450    4.4920 C   0  0  0  0  0  0  0  0  0  0  0  0
   13.5760   23.0860    4.8930 C   0  0  0  0  0  0  0  0  0  0  0  0
   11.1430   26.6310    2.4020 C   0  0  0  0  0  0  0  0  0  0  0  0
   15.4560   24.2620    2.8250 C   0  0  0  0  0  0  0  0  0  0  0  0
   12.7070   21.8560    4.6300 C   0  0  0  0  0  0  0  0  0  0  0  0
   13.5840   23.5520    6.3530 C   0  0  0  0  0  0  0  0  0  0  0  0
   10.0300   19.0820    2.9600 C   0  0  0  0  0  0  0  0  0  0  0  0
   10.7710   19.7040    0.7660 C   0  0  0  0  0  0  0  0  0  0  0  0
   11.6390   20.8500    2.6930 C   0  0  0  0  0  0  0  0  0  0  0  0
   18.0590   23.3580    2.5020 C   0  0  0  0  0  0  0  0  0  0  0  0
   11.5960   20.6770    1.3150 C   0  0  0  0  0  0  0  0  0  0  0  0
   12.4730   21.8220    3.2040 O   0  0  0  0  0  0  0  0  0  0  0  0
   10.8520   20.0510    3.5150 C   0  0  0  0  0  0  0  0  0  0  0  0
    9.9760   18.8950    1.5790 C   0  0  0  0  0  0  0  0  0  0  0  0
    9.0880   17.8520    0.9840 C   0  0  0  0  0  0  0  0  0  0  0  0
    8.8890   17.9590   -0.2980 O   0  0  0  0  0  0  0  0  0  0  0  0
    8.5820   16.9590    1.6500 O   0  0  0  0  0  0  0  0  0  0  0  0
   13.9200   22.4180    7.3220 C   0  0  0  0  0  0  0  0  0  0  0  0
   13.9000   22.8890    8.7770 C   0  0  0  0  0  0  0  0  0  0  0  0
   14.8510   24.0520    9.0010 C   0  0  0  0  0  0  0  0  0  0  0  0
   14.5600   25.1980    8.0350 C   0  0  0  0  0  0  0  0  0  0  0  0
   14.5540   24.7170    6.5760 C   0  0  0  0  0  0  0  0  0  0  0  0
    9.7780   25.5850    4.1030 C   0  0  0  0  0  0  0  0  0  0  0  0
    9.9480   26.5040    3.0840 C   0  0  0  0  0  0  0  0  0  0  0  0
   14.0640   24.7240    3.0020 C   0  0  0  0  0  0  0  0  0  0  0  0
   15.7260   23.1170    2.0750 C   0  0  0  0  0  0  0  0  0  0  0  0
   17.0260   22.6620    1.9100 C   0  0  0  0  0  0  0  0  0  0  0  0
   17.8220   24.4900    3.2540 C   0  0  0  0  0  0  0  0  0  0  0  0
   16.5190   24.9370    3.4160 C   0  0  0  0  0  0  0  0  0  0  0  0
   19.6990   22.7930    2.3020 Cl  0  0  0  0  0  0  0  0  0  0  0  0
    8.9160   27.2930    2.7570 F   0  0  0  0  0  0  0  0  0  0  0  0
    8.5570   25.5080    4.7410 F   0  0  0  0  0  0  0  0  0  0  0  0
   10.6533   24.0128    5.3016 H   0  0  0  0  0  0  0  0  0  0  0  0
   14.6158   22.7820    4.7023 H   0  0  0  0  0  0  0  0  0  0  0  0
   11.2644   27.3672    1.5938 H   0  0  0  0  0  0  0  0  0  0  0  0
   11.7528   21.9411    5.1706 H   0  0  0  0  0  0  0  0  0  0  0  0
   13.2009   20.9361    4.9762 H   0  0  0  0  0  0  0  0  0  0  0  0
   12.5606   23.8966    6.5623 H   0  0  0  0  0  0  0  0  0  0  0  0
    9.4124   18.4525    3.6176 H   0  0  0  0  0  0  0  0  0  0  0  0
   10.7438   19.5691   -0.3254 H   0  0  0  0  0  0  0  0  0  0  0  0
   12.2140   21.3092    0.6605 H   0  0  0  0  0  0  0  0  0  0  0  0
   10.8815   20.1877    4.6061 H   0  0  0  0  0  0  0  0  0  0  0  0
    8.6074   17.0038    2.6387 H   0  0  0  0  0  0  0  0  0  0  0  0
   13.1805   21.6131    7.1982 H   0  0  0  0  0  0  0  0  0  0  0  0
   14.9349   22.0615    7.0921 H   0  0  0  0  0  0  0  0  0  0  0  0
   12.8793   23.2076    9.0351 H   0  0  0  0  0  0  0  0  0  0  0  0
   14.2232   22.0525    9.4140 H   0  0  0  0  0  0  0  0  0  0  0  0
   15.8836   23.7059    8.8462 H   0  0  0  0  0  0  0  0  0  0  0  0
   14.7148   24.4200   10.0286 H   0  0  0  0  0  0  0  0  0  0  0  0
   15.3340   25.9706    8.1534 H   0  0  0  0  0  0  0  0  0  0  0  0
   13.5641   25.6022    8.2692 H   0  0  0  0  0  0  0  0  0  0  0  0
   15.5690   24.3889    6.3073 H   0  0  0  0  0  0  0  0  0  0  0  0
   14.2236   25.5560    5.9459 H   0  0  0  0  0  0  0  0  0  0  0  0
   14.8959   22.5670    1.6077 H   0  0  0  0  0  0  0  0  0  0  0  0
   17.2300   21.7592    1.3156 H   0  0  0  0  0  0  0  0  0  0  0  0
   18.6577   25.0325    3.7203 H   0  0  0  0  0  0  0  0  0  0  0  0
   16.3239   25.8360    4.0191 H   0  0  0  0  0  0  0  0  0  0  0  0
 20 19  2  0
 12 15  2  0
 12 18  1  0
 19 18  1  0
 19 21  1  0
 15 13  1  0
 18 11  2  0
 31 30  1  0
 31 14  2  0
 30  8  2  0
  2  4  1  0
  2 29  2  0
 34 14  1  0
  7  4  2  0
  7 28  1  0
 14 32  1  0
 13 16  1  0
 13 17  2  0
 35 28  1  0
  4  3  1  0
  8 29  1  0
  8 33  1  0
 11 17  1  0
 29  1  1  0
 28 27  2  0
 16  9  1  0
 32 33  2  0
  3  1  1  0
  3  5  2  0
  1  6  1  0
 27  5  1  0
 27 36  1  0
  9  6  1  0
  6 10  1  0
 10 26  1  0
 10 22  1  0
 26 25  1  0
 22 23  1  0
 25 24  1  0
 23 24  1  0
  5 37  1  0
  6 38  1  0
  7 39  1  0
  9 40  1  0
  9 41  1  0
 10 42  1  0
 11 43  1  0
 12 44  1  0
 15 45  1  0
 17 46  1  0
 21 47  1  0
 22 48  1  0
 22 49  1  0
 23 50  1  0
 23 51  1  0
 24 52  1  0
 24 53  1  0
 25 54  1  0
 25 55  1  0
 26 56  1  0
 26 57  1  0
 30 58  1  0
 31 59  1  0
 32 60  1  0
 33 61  1  0
A    1
N1
A    2
N3
A    3
C4
A    4
C5
A    5
C6
A    6
C7
A    7
C8
A    8
C10
A    9
C13
A   10
C17
A   11
C20
A   12
C21
A   13
C24
A   14
C26
A   15
C28
A   16
O16
A   17
C27
A   18
C14
A   19
C12
A   20
O15
A   21
O25
A   22
C32
A   23
C34
A   24
C36
A   25
C35
A   26
C33
A   27
C9
A   28
C11
A   29
C2
A   30
C18
A   31
C30
A   32
C29
A   33
C19
A   34
CL31
A   35
F23
A   36
F22
M  END
