5Q0Q_9LD_A_501
     RDKit          3D

 61 65  0  0  0  0  0  0  0  0999 V2000
  -28.9080   -4.0370  -13.0910 N   0  0  0  0  0  0  0  0  0  0  0  0
  -31.4290   -3.5180  -13.1460 C   0  0  0  0  0  0  0  0  0  0  0  0
  -28.4870   -4.2980  -15.1800 C   0  0  0  0  0  0  0  0  0  0  0  0
  -30.7400   -3.9250  -16.3260 C   0  0  0  0  0  0  0  0  0  0  0  0
  -35.6300   -0.7550   -8.6620 C   0  0  0  0  0  0  0  0  0  0  0  0
  -28.5290   -3.9970  -11.6500 C   0  0  0  0  0  0  0  0  0  0  0  0
  -34.5280   -1.2540   -9.5330 C   0  0  0  0  0  0  0  0  0  0  0  0
  -32.8900   -5.3620  -18.9350 C   0  0  0  0  0  0  0  0  0  0  0  0
  -32.3070   -7.4390  -19.7710 C   0  0  0  0  0  0  0  0  0  0  0  0
  -33.2950   -6.6840  -19.2640 C   0  0  0  0  0  0  0  0  0  0  0  0
  -33.2220   -0.7620   -9.4260 C   0  0  0  0  0  0  0  0  0  0  0  0
  -35.2280    0.5280   -5.2480 C   0  0  0  0  0  0  0  0  0  0  0  0
  -35.7820   -0.3970   -6.2550 C   0  0  0  0  0  0  0  0  0  0  0  0
  -35.1710   -0.0700   -7.5990 O   0  0  0  0  0  0  0  0  0  0  0  0
  -36.8030   -0.9400   -8.8770 O   0  0  0  0  0  0  0  0  0  0  0  0
  -32.2120   -1.2410  -10.2430 C   0  0  0  0  0  0  0  0  0  0  0  0
  -32.4850   -2.2190  -11.1940 C   0  0  0  0  0  0  0  0  0  0  0  0
  -31.3870   -2.7190  -12.0460 N   0  0  0  0  0  0  0  0  0  0  0  0
  -32.4680   -3.9600  -13.6320 O   0  0  0  0  0  0  0  0  0  0  0  0
  -30.1230   -3.8360  -13.7530 C   0  0  0  0  0  0  0  0  0  0  0  0
  -29.8660   -4.0060  -15.1150 C   0  0  0  0  0  0  0  0  0  0  0  0
  -29.9060   -3.8970  -17.5610 N   0  0  0  0  0  0  0  0  0  0  0  0
  -28.8060   -4.8990  -17.5440 C   0  0  0  0  0  0  0  0  0  0  0  0
  -27.7820   -4.5490  -16.4730 C   0  0  0  0  0  0  0  0  0  0  0  0
  -27.9040   -4.3210  -14.0110 N   0  0  0  0  0  0  0  0  0  0  0  0
  -29.4450   -4.3640  -10.6650 C   0  0  0  0  0  0  0  0  0  0  0  0
  -29.0720   -4.3210   -9.3260 C   0  0  0  0  0  0  0  0  0  0  0  0
  -27.7990   -3.9230   -8.9630 C   0  0  0  0  0  0  0  0  0  0  0  0
  -26.8840   -3.5630   -9.9370 C   0  0  0  0  0  0  0  0  0  0  0  0
  -27.2380   -3.5970  -11.2810 C   0  0  0  0  0  0  0  0  0  0  0  0
  -30.6940   -3.7070  -18.9650 S   0  0  0  0  0  0  0  0  0  0  0  0
  -31.6420   -2.6530  -18.7830 O   0  0  0  0  0  0  0  0  0  0  0  0
  -29.7060   -3.5900  -19.9890 O   0  0  0  0  0  0  0  0  0  0  0  0
  -31.5650   -5.1830  -19.2260 C   0  0  0  0  0  0  0  0  0  0  0  0
  -30.8330   -6.5900  -19.8790 S   0  0  0  0  0  0  0  0  0  0  0  0
  -33.7830   -2.7180  -11.3030 C   0  0  0  0  0  0  0  0  0  0  0  0
  -34.7900   -2.2370  -10.4840 C   0  0  0  0  0  0  0  0  0  0  0  0
  -31.3463   -3.0085  -16.2760 H   0  0  0  0  0  0  0  0  0  0  0  0
  -31.3958   -4.8077  -16.3554 H   0  0  0  0  0  0  0  0  0  0  0  0
  -33.5485   -4.5918  -18.5070 H   0  0  0  0  0  0  0  0  0  0  0  0
  -32.4345   -8.4866  -20.0814 H   0  0  0  0  0  0  0  0  0  0  0  0
  -34.3206   -7.0537  -19.1172 H   0  0  0  0  0  0  0  0  0  0  0  0
  -32.9949    0.0161   -8.6824 H   0  0  0  0  0  0  0  0  0  0  0  0
  -35.4540    0.1506   -4.2398 H   0  0  0  0  0  0  0  0  0  0  0  0
  -34.1379    0.6001   -5.3767 H   0  0  0  0  0  0  0  0  0  0  0  0
  -35.6790    1.5230   -5.3767 H   0  0  0  0  0  0  0  0  0  0  0  0
  -36.8744   -0.2783   -6.3059 H   0  0  0  0  0  0  0  0  0  0  0  0
  -35.5488   -1.4360   -5.9792 H   0  0  0  0  0  0  0  0  0  0  0  0
  -31.1902   -0.8469  -10.1398 H   0  0  0  0  0  0  0  0  0  0  0  0
  -30.4440   -2.4159  -11.7636 H   0  0  0  0  0  0  0  0  0  0  0  0
  -29.2256   -5.8936  -17.3323 H   0  0  0  0  0  0  0  0  0  0  0  0
  -28.3088   -4.8980  -18.5252 H   0  0  0  0  0  0  0  0  0  0  0  0
  -27.0772   -5.3847  -16.3512 H   0  0  0  0  0  0  0  0  0  0  0  0
  -27.2288   -3.6467  -16.7726 H   0  0  0  0  0  0  0  0  0  0  0  0
  -30.4585   -4.6862  -10.9459 H   0  0  0  0  0  0  0  0  0  0  0  0
  -29.7964   -4.6062   -8.5489 H   0  0  0  0  0  0  0  0  0  0  0  0
  -27.5135   -3.8924   -7.9011 H   0  0  0  0  0  0  0  0  0  0  0  0
  -25.8710   -3.2482   -9.6461 H   0  0  0  0  0  0  0  0  0  0  0  0
  -26.5072   -3.3109  -12.0518 H   0  0  0  0  0  0  0  0  0  0  0  0
  -34.0078   -3.4988  -12.0445 H   0  0  0  0  0  0  0  0  0  0  0  0
  -35.8099   -2.6362  -10.5856 H   0  0  0  0  0  0  0  0  0  0  0  0
 33 31  2  0
 35  9  1  0
 35 34  1  0
  9 10  2  0
 10  8  1  0
 34 31  1  0
 34  8  2  0
 31 32  2  0
 31 22  1  0
 22 23  1  0
 22  4  1  0
 23 24  1  0
 24  3  1  0
  4 21  1  0
  3 21  1  0
  3 25  2  0
 21 20  2  0
 25  1  1  0
 20  2  1  0
 20  1  1  0
 19  2  2  0
  2 18  1  0
  1  6  1  0
 18 17  1  0
  6 30  1  0
  6 26  2  0
 36 17  2  0
 36 37  1  0
 30 29  2  0
 17 16  1  0
 26 27  1  0
 37  7  2  0
 16 11  2  0
 29 28  1  0
  7 11  1  0
  7  5  1  0
 27 28  2  0
 15  5  2  0
  5 14  1  0
 14 13  1  0
 13 12  1  0
  4 38  1  0
  4 39  1  0
  8 40  1  0
  9 41  1  0
 10 42  1  0
 11 43  1  0
 12 44  1  0
 12 45  1  0
 12 46  1  0
 13 47  1  0
 13 48  1  0
 16 49  1  0
 18 50  1  0
 23 51  1  0
 23 52  1  0
 24 53  1  0
 24 54  1  0
 26 55  1  0
 27 56  1  0
 28 57  1  0
 29 58  1  0
 30 59  1  0
 36 60  1  0
 37 61  1  0
A    1
N3
A    2
C7
A    3
C8
A    4
C10
A    5
C13
A    6
C17
A    7
C20
A    8
C21
A    9
C22
A   10
C24
A   11
C26
A   12
C34
A   13
C33
A   14
O28
A   15
O23
A   16
C29
A   17
C25
A   18
N11
A   19
O19
A   20
C1
A   21
C2
A   22
N6
A   23
C18
A   24
C16
A   25
N5
A   26
C31
A   27
C36
A   28
C37
A   29
C35
A   30
C32
A   31
S4
A   32
O14
A   33
O15
A   34
C9
A   35
S12
A   36
C30
A   37
C27
M  END
