5Q0R_9LG_A_501
     RDKit          3D

 62 66  0  0  0  0  0  0  0  0999 V2000
   31.6950   31.1700   -0.4110 C   0  0  0  0  0  0  0  0  0  0  0  0
   31.7510   31.0670   -7.3360 C   0  0  0  0  0  0  0  0  0  0  0  0
   30.5080   31.7910   -2.2340 C   0  0  0  0  0  0  0  0  0  0  0  0
   30.6750   32.0130   -0.9260 C   0  0  0  0  0  0  0  0  0  0  0  0
   32.2380   31.0220    0.9480 C   0  0  0  0  0  0  0  0  0  0  0  0
   33.1860   29.3590   -1.5520 C   0  0  0  0  0  0  0  0  0  0  0  0
   30.1350   32.2590   -4.6180 C   0  0  0  0  0  0  0  0  0  0  0  0
   29.5710   32.4170   -3.2210 C   0  0  0  0  0  0  0  0  0  0  0  0
   32.6960   30.2000   -7.8760 C   0  0  0  0  0  0  0  0  0  0  0  0
   32.6310   28.0050   -1.1930 C   0  0  0  0  0  0  0  0  0  0  0  0
   33.0040   32.9620   -8.1740 C   0  0  0  0  0  0  0  0  0  0  0  0
   32.1860   27.1330   -2.1820 C   0  0  0  0  0  0  0  0  0  0  0  0
   33.2820   32.1110    5.1040 C   0  0  0  0  0  0  0  0  0  0  0  0
   31.0140   33.2870   -6.9820 F   0  0  0  0  0  0  0  0  0  0  0  0
   31.9270   32.4360   -7.5000 C   0  0  0  0  0  0  0  0  0  0  0  0
   33.9400   32.0880   -8.7060 C   0  0  0  0  0  0  0  0  0  0  0  0
   33.7870   30.7210   -8.5600 C   0  0  0  0  0  0  0  0  0  0  0  0
   30.3720   30.3540   -6.4730 S   0  0  0  0  0  0  0  0  0  0  0  0
   30.5650   28.9390   -6.4900 O   0  0  0  0  0  0  0  0  0  0  0  0
   29.1770   30.9110   -7.0260 O   0  0  0  0  0  0  0  0  0  0  0  0
   30.4260   30.8210   -4.9010 N   0  0  0  0  0  0  0  0  0  0  0  0
   33.3940   30.6620    1.1550 O   0  0  0  0  0  0  0  0  0  0  0  0
   31.3710   31.3050    1.9350 N   0  0  0  0  0  0  0  0  0  0  0  0
   31.7120   31.2080    3.3600 C   0  0  0  0  0  0  0  0  0  0  0  0
   32.4490   32.3550    4.0140 C   0  0  0  0  0  0  0  0  0  0  0  0
   32.3150   33.6650    3.5620 C   0  0  0  0  0  0  0  0  0  0  0  0
   33.0020   34.7050    4.1800 C   0  0  0  0  0  0  0  0  0  0  0  0
   33.8280   34.4510    5.2600 C   0  0  0  0  0  0  0  0  0  0  0  0
   33.9710   33.1540    5.7240 C   0  0  0  0  0  0  0  0  0  0  0  0
   32.1610   30.3980   -1.4820 N   0  0  0  0  0  0  0  0  0  0  0  0
   32.5450   27.6040    0.1390 C   0  0  0  0  0  0  0  0  0  0  0  0
   32.0290   26.3550    0.4720 C   0  0  0  0  0  0  0  0  0  0  0  0
   31.5920   25.4980   -0.5180 C   0  0  0  0  0  0  0  0  0  0  0  0
   31.6720   25.8880   -1.8470 C   0  0  0  0  0  0  0  0  0  0  0  0
   31.3940   30.7980   -2.6540 C   0  0  0  0  0  0  0  0  0  0  0  0
   31.5210   30.2660   -4.0540 C   0  0  0  0  0  0  0  0  0  0  0  0
   30.1043   32.7436   -0.3340 H   0  0  0  0  0  0  0  0  0  0  0  0
   33.5856   29.3206   -2.5761 H   0  0  0  0  0  0  0  0  0  0  0  0
   33.9774   29.6082   -0.8298 H   0  0  0  0  0  0  0  0  0  0  0  0
   31.0649   32.8406   -4.7017 H   0  0  0  0  0  0  0  0  0  0  0  0
   29.3951   32.6239   -5.3456 H   0  0  0  0  0  0  0  0  0  0  0  0
   29.4553   33.4863   -2.9904 H   0  0  0  0  0  0  0  0  0  0  0  0
   28.5901   31.9226   -3.1620 H   0  0  0  0  0  0  0  0  0  0  0  0
   32.5801   29.1120   -7.7623 H   0  0  0  0  0  0  0  0  0  0  0  0
   33.1203   34.0498   -8.2884 H   0  0  0  0  0  0  0  0  0  0  0  0
   32.2421   27.4331   -3.2388 H   0  0  0  0  0  0  0  0  0  0  0  0
   33.3978   31.0838    5.4802 H   0  0  0  0  0  0  0  0  0  0  0  0
   34.8109   32.4848   -9.2483 H   0  0  0  0  0  0  0  0  0  0  0  0
   34.5364   30.0400   -8.9896 H   0  0  0  0  0  0  0  0  0  0  0  0
   30.4195   31.6050    1.6791 H   0  0  0  0  0  0  0  0  0  0  0  0
   30.7684   31.0752    3.9096 H   0  0  0  0  0  0  0  0  0  0  0  0
   32.4268   30.3731    3.4054 H   0  0  0  0  0  0  0  0  0  0  0  0
   31.6582   33.8802    2.7062 H   0  0  0  0  0  0  0  0  0  0  0  0
   32.8878   35.7339    3.8081 H   0  0  0  0  0  0  0  0  0  0  0  0
   34.3687   35.2753    5.7480 H   0  0  0  0  0  0  0  0  0  0  0  0
   34.6279   32.9460    6.5815 H   0  0  0  0  0  0  0  0  0  0  0  0
   32.8883   28.2813    0.9349 H   0  0  0  0  0  0  0  0  0  0  0  0
   31.9692   26.0499    1.5272 H   0  0  0  0  0  0  0  0  0  0  0  0
   31.1827   24.5115   -0.2547 H   0  0  0  0  0  0  0  0  0  0  0  0
   31.3264   25.2073   -2.6390 H   0  0  0  0  0  0  0  0  0  0  0  0
   31.4499   29.1684   -4.0365 H   0  0  0  0  0  0  0  0  0  0  0  0
   32.4936   30.5652   -4.4718 H   0  0  0  0  0  0  0  0  0  0  0  0
 16 17  1  0
 16 11  2  0
 17  9  2  0
 11 15  1  0
  9  2  1  0
 15  2  2  0
 15 14  1  0
  2 18  1  0
 20 18  2  0
 19 18  2  0
 18 21  1  0
 21  7  1  0
 21 36  1  0
  7  8  1  0
 36 35  1  0
  8  3  1  0
 35  3  2  0
 35 30  1  0
  3  4  1  0
 12 34  2  0
 12 10  1  0
 34 33  1  0
  6 30  1  0
  6 10  1  0
 30  1  1  0
 10 31  2  0
  4  1  2  0
 33 32  2  0
  1  5  1  0
 31 32  1  0
  5 22  2  0
  5 23  1  0
 23 24  1  0
 24 25  1  0
 26 25  1  0
 26 27  2  0
 25 13  2  0
 27 28  1  0
 13 29  1  0
 28 29  2  0
  4 37  1  0
  6 38  1  0
  6 39  1  0
  7 40  1  0
  7 41  1  0
  8 42  1  0
  8 43  1  0
  9 44  1  0
 11 45  1  0
 12 46  1  0
 13 47  1  0
 16 48  1  0
 17 49  1  0
 23 50  1  0
 24 51  1  0
 24 52  1  0
 26 53  1  0
 27 54  1  0
 28 55  1  0
 29 56  1  0
 31 57  1  0
 32 58  1  0
 33 59  1  0
 34 60  1  0
 36 61  1  0
 36 62  1  0
A    1
C4
A    2
C6
A    3
C7
A    4
C8
A    5
C10
A    6
C13
A    7
C15
A    8
C17
A    9
C21
A   10
C22
A   11
C24
A   12
C26
A   13
C28
A   14
F20
A   15
C16
A   16
C30
A   17
C29
A   18
S1
A   19
O11
A   20
O12
A   21
N5
A   22
O18
A   23
N14
A   24
C19
A   25
C23
A   26
C27
A   27
C33
A   28
C35
A   29
C34
A   30
N2
A   31
C25
A   32
C31
A   33
C36
A   34
C32
A   35
C3
A   36
C9
M  END
