5Q0W_9LV_A_501
     RDKit          3D

 58 62  0  0  0  0  0  0  0  0999 V2000
  -14.5900   51.9440    1.4490 C   0  0  0  0  0  0  0  0  0  0  0  0
  -14.4500   51.7310   -0.0290 C   0  0  0  0  0  0  0  0  0  0  0  0
  -14.4870   52.9630   -0.6740 C   0  0  0  0  0  0  0  0  0  0  0  0
  -15.7420   49.6700    6.3060 C   0  0  0  0  0  0  0  0  0  0  0  0
  -15.9920   51.3770    1.8710 C   0  0  0  0  0  0  0  0  0  0  0  0
  -14.3940   53.0480   -2.0620 C   0  0  0  0  0  0  0  0  0  0  0  0
  -14.3310   50.5580   -0.7680 C   0  0  0  0  0  0  0  0  0  0  0  0
  -16.1290   51.0550    3.3360 C   0  0  0  0  0  0  0  0  0  0  0  0
  -11.4950   58.2310   -0.3820 C   0  0  0  0  0  0  0  0  0  0  0  0
  -12.7260   58.4410   -0.9840 C   0  0  0  0  0  0  0  0  0  0  0  0
  -13.5640   56.3490   -0.1190 C   0  0  0  0  0  0  0  0  0  0  0  0
   -9.5350   59.3700    0.2670 O   0  0  0  0  0  0  0  0  0  0  0  0
  -10.4230   59.2480   -0.5430 C   0  0  0  0  0  0  0  0  0  0  0  0
  -10.5290   59.9970   -1.6280 O   0  0  0  0  0  0  0  0  0  0  0  0
  -11.3060   57.0550    0.3700 C   0  0  0  0  0  0  0  0  0  0  0  0
  -12.3410   56.1250    0.4980 C   0  0  0  0  0  0  0  0  0  0  0  0
  -14.7350   55.4220   -0.0290 C   0  0  0  0  0  0  0  0  0  0  0  0
  -14.5980   53.9880    0.2800 N   0  0  0  0  0  0  0  0  0  0  0  0
  -14.6760   53.4700    1.5500 C   0  0  0  0  0  0  0  0  0  0  0  0
  -14.7950   54.1140    2.5770 O   0  0  0  0  0  0  0  0  0  0  0  0
  -14.9900   50.2180    3.7350 N   0  0  0  0  0  0  0  0  0  0  0  0
  -13.7220   50.9690    3.7450 C   0  0  0  0  0  0  0  0  0  0  0  0
  -13.3720   51.3670    2.3120 C   0  0  0  0  0  0  0  0  0  0  0  0
  -15.2230   48.9680    4.7600 S   0  0  0  0  0  0  0  0  0  0  0  0
  -13.9480   48.3580    4.9690 O   0  0  0  0  0  0  0  0  0  0  0  0
  -16.2960   48.1910    4.2260 O   0  0  0  0  0  0  0  0  0  0  0  0
  -14.7340   50.0580    7.1890 C   0  0  0  0  0  0  0  0  0  0  0  0
  -15.0630   50.6140    8.4160 C   0  0  0  0  0  0  0  0  0  0  0  0
  -16.3850   50.7870    8.7730 C   0  0  0  0  0  0  0  0  0  0  0  0
  -17.4030   50.4070    7.9080 C   0  0  0  0  0  0  0  0  0  0  0  0
  -17.0850   49.8510    6.6780 C   0  0  0  0  0  0  0  0  0  0  0  0
  -18.3880   49.3930    5.6340 Cl  0  0  0  0  0  0  0  0  0  0  0  0
  -14.2420   50.6550   -2.1440 C   0  0  0  0  0  0  0  0  0  0  0  0
  -14.0800   49.0640   -3.1580 Br  0  0  0  0  0  0  0  0  0  0  0  0
  -14.2740   51.8740   -2.8020 C   0  0  0  0  0  0  0  0  0  0  0  0
  -13.7370   57.5170   -0.8500 C   0  0  0  0  0  0  0  0  0  0  0  0
  -16.7556   52.1254    1.6124 H   0  0  0  0  0  0  0  0  0  0  0  0
  -16.1159   50.4259    1.3324 H   0  0  0  0  0  0  0  0  0  0  0  0
  -14.4150   54.0261   -2.5649 H   0  0  0  0  0  0  0  0  0  0  0  0
  -14.3083   49.5777   -0.2695 H   0  0  0  0  0  0  0  0  0  0  0  0
  -16.1297   51.9856    3.9225 H   0  0  0  0  0  0  0  0  0  0  0  0
  -17.0730   50.5209    3.5190 H   0  0  0  0  0  0  0  0  0  0  0  0
  -12.8961   59.3539   -1.5737 H   0  0  0  0  0  0  0  0  0  0  0  0
   -9.7406   59.3417    1.2350 H   0  0  0  0  0  0  0  0  0  0  0  0
  -10.3386   56.8678    0.8590 H   0  0  0  0  0  0  0  0  0  0  0  0
  -12.1858   55.2112    1.0904 H   0  0  0  0  0  0  0  0  0  0  0  0
  -15.3929   55.8385    0.7479 H   0  0  0  0  0  0  0  0  0  0  0  0
  -15.0741   55.3916   -1.0750 H   0  0  0  0  0  0  0  0  0  0  0  0
  -12.9220   50.3376    4.1588 H   0  0  0  0  0  0  0  0  0  0  0  0
  -13.8271   51.8700    4.3672 H   0  0  0  0  0  0  0  0  0  0  0  0
  -12.9816   50.4768    1.7971 H   0  0  0  0  0  0  0  0  0  0  0  0
  -12.6400   52.1842    2.3920 H   0  0  0  0  0  0  0  0  0  0  0  0
  -13.6781   49.9229    6.9119 H   0  0  0  0  0  0  0  0  0  0  0  0
  -14.2653   50.9191    9.1092 H   0  0  0  0  0  0  0  0  0  0  0  0
  -16.6340   51.2288    9.7491 H   0  0  0  0  0  0  0  0  0  0  0  0
  -18.4552   50.5462    8.1968 H   0  0  0  0  0  0  0  0  0  0  0  0
  -14.2052   51.9143   -3.8991 H   0  0  0  0  0  0  0  0  0  0  0  0
  -14.7061   57.7083   -1.3339 H   0  0  0  0  0  0  0  0  0  0  0  0
 34 33  1  0
 35 33  1  0
 35  6  2  0
 33  7  2  0
  6  3  1  0
 14 13  2  0
 10 36  1  0
 10  9  2  0
 36 11  2  0
  7  2  1  0
  3  2  2  0
  3 18  1  0
 13  9  1  0
 13 12  1  0
  9 15  1  0
 11 17  1  0
 11 16  1  0
  2  1  1  0
 17 18  1  0
 18 19  1  0
 15 16  2  0
  1 19  1  0
  1  5  1  0
  1 23  1  0
 19 20  2  0
  5  8  1  0
 23 22  1  0
  8 21  1  0
 21 22  1  0
 21 24  1  0
 26 24  2  0
 24 25  2  0
 24  4  1  0
 32 31  1  0
  4 31  1  0
  4 27  2  0
 31 30  2  0
 27 28  1  0
 30 29  1  0
 28 29  2  0
  5 37  1  0
  5 38  1  0
  6 39  1  0
  7 40  1  0
  8 41  1  0
  8 42  1  0
 10 43  1  0
 12 44  1  0
 15 45  1  0
 16 46  1  0
 17 47  1  0
 17 48  1  0
 22 49  1  0
 22 50  1  0
 23 51  1  0
 23 52  1  0
 27 53  1  0
 28 54  1  0
 29 55  1  0
 30 56  1  0
 35 57  1  0
 36 58  1  0
A    1
C4
A    2
C5
A    3
C6
A    4
C7
A    5
C10
A    6
C15
A    7
C17
A    8
C20
A    9
C21
A   10
C24
A   11
C26
A   12
O28
A   13
C11
A   14
O22
A   15
C23
A   16
C32
A   17
C14
A   18
N2
A   19
C3
A   20
O16
A   21
N8
A   22
C19
A   23
C9
A   24
S1
A   25
O12
A   26
O13
A   27
C30
A   28
C35
A   29
C36
A   30
C34
A   31
C18
A   32
CL29
A   33
C25
A   34
BR33
A   35
C27
A   36
C31
M  END
