5Q11_9M7_A_501
     RDKit          3D

 57 60  0  0  0  0  0  0  0  0999 V2000
  -11.9060   40.8520   -6.0450 N   0  0  0  0  0  0  0  0  0  0  0  0
  -11.8700   41.6760   -7.2840 C   0  0  0  0  0  0  0  0  0  0  0  0
  -10.7890   39.0320   -4.6530 C   0  0  0  0  0  0  0  0  0  0  0  0
  -14.3970   40.5740   -5.6590 C   0  0  0  0  0  0  0  0  0  0  0  0
  -13.1210   42.5000   -4.5640 C   0  0  0  0  0  0  0  0  0  0  0  0
  -12.1280   40.8340   -8.5480 C   0  0  0  0  0  0  0  0  0  0  0  0
  -15.5020   40.6990   -4.5940 C   0  0  0  0  0  0  0  0  0  0  0  0
  -10.6310   43.3870   -8.7040 C   0  0  0  0  0  0  0  0  0  0  0  0
  -10.5700   40.7420   -2.6220 C   0  0  0  0  0  0  0  0  0  0  0  0
  -10.9200   36.6160   -5.6680 C   0  0  0  0  0  0  0  0  0  0  0  0
  -15.6100   42.1280   -4.0720 C   0  0  0  0  0  0  0  0  0  0  0  0
  -10.8090   42.5020   -9.9260 C   0  0  0  0  0  0  0  0  0  0  0  0
  -11.4780   41.0470   -1.6010 C   0  0  0  0  0  0  0  0  0  0  0  0
  -10.4990   43.2020   -1.3400 C   0  0  0  0  0  0  0  0  0  0  0  0
  -10.8060   37.6650   -4.6250 C   0  0  0  0  0  0  0  0  0  0  0  0
  -10.6900   37.2380   -3.3530 O   0  0  0  0  0  0  0  0  0  0  0  0
  -10.5900   38.3610   -2.4930 N   0  0  0  0  0  0  0  0  0  0  0  0
  -10.6460   39.4150   -3.2710 C   0  0  0  0  0  0  0  0  0  0  0  0
  -11.4450   42.2740   -0.9610 C   0  0  0  0  0  0  0  0  0  0  0  0
  -10.4530   44.7330   -0.5450 Cl  0  0  0  0  0  0  0  0  0  0  0  0
   -9.5840   42.9460   -2.3370 C   0  0  0  0  0  0  0  0  0  0  0  0
   -9.6210   41.7220   -2.9720 C   0  0  0  0  0  0  0  0  0  0  0  0
   -8.4600   41.4520   -4.2080 Cl  0  0  0  0  0  0  0  0  0  0  0  0
  -10.8880   39.9450   -5.8520 C   0  0  0  0  0  0  0  0  0  0  0  0
   -9.9580   39.7920   -6.6660 O   0  0  0  0  0  0  0  0  0  0  0  0
  -13.0420   41.0740   -5.1170 C   0  0  0  0  0  0  0  0  0  0  0  0
  -14.2450   42.6240   -3.5120 C   0  0  0  0  0  0  0  0  0  0  0  0
  -10.6050   42.5560   -7.4140 C   0  0  0  0  0  0  0  0  0  0  0  0
  -12.1030   41.6940   -9.8260 C   0  0  0  0  0  0  0  0  0  0  0  0
  -12.7057   42.3847   -7.1877 H   0  0  0  0  0  0  0  0  0  0  0  0
  -14.6757   41.1742   -6.5376 H   0  0  0  0  0  0  0  0  0  0  0  0
  -14.2936   39.5133   -5.9314 H   0  0  0  0  0  0  0  0  0  0  0  0
  -12.1597   42.7580   -4.0955 H   0  0  0  0  0  0  0  0  0  0  0  0
  -13.3412   43.1865   -5.3948 H   0  0  0  0  0  0  0  0  0  0  0  0
  -13.1143   40.3549   -8.4610 H   0  0  0  0  0  0  0  0  0  0  0  0
  -11.3280   40.0831   -8.6266 H   0  0  0  0  0  0  0  0  0  0  0  0
  -16.4641   40.4069   -5.0400 H   0  0  0  0  0  0  0  0  0  0  0  0
  -15.2475   40.0399   -3.7509 H   0  0  0  0  0  0  0  0  0  0  0  0
   -9.6830   43.9375   -8.7950 H   0  0  0  0  0  0  0  0  0  0  0  0
  -11.4812   44.0831   -8.6521 H   0  0  0  0  0  0  0  0  0  0  0  0
  -11.0269   35.6320   -5.1882 H   0  0  0  0  0  0  0  0  0  0  0  0
  -11.8017   36.8162   -6.2946 H   0  0  0  0  0  0  0  0  0  0  0  0
  -10.0159   36.6221   -6.2946 H   0  0  0  0  0  0  0  0  0  0  0  0
  -15.9224   42.7884   -4.8944 H   0  0  0  0  0  0  0  0  0  0  0  0
  -16.3498   42.1480   -3.2582 H   0  0  0  0  0  0  0  0  0  0  0  0
   -9.9565   41.8106   -9.9980 H   0  0  0  0  0  0  0  0  0  0  0  0
  -10.8599   43.1408  -10.8201 H   0  0  0  0  0  0  0  0  0  0  0  0
  -12.2289   40.3005   -1.3029 H   0  0  0  0  0  0  0  0  0  0  0  0
  -12.1638   42.5052   -0.1611 H   0  0  0  0  0  0  0  0  0  0  0  0
   -8.8382   43.7029   -2.6214 H   0  0  0  0  0  0  0  0  0  0  0  0
  -12.8117   40.4327   -4.2535 H   0  0  0  0  0  0  0  0  0  0  0  0
  -13.9790   42.0196   -2.6323 H   0  0  0  0  0  0  0  0  0  0  0  0
  -14.3486   43.6853   -3.2421 H   0  0  0  0  0  0  0  0  0  0  0  0
   -9.7170   41.9069   -7.4243 H   0  0  0  0  0  0  0  0  0  0  0  0
  -10.5741   43.2463   -6.5581 H   0  0  0  0  0  0  0  0  0  0  0  0
  -12.9575   42.3865   -9.8088 H   0  0  0  0  0  0  0  0  0  0  0  0
  -12.1626   41.0243  -10.6966 H   0  0  0  0  0  0  0  0  0  0  0  0
 12 29  1  0
 12  8  1  0
 29  6  1  0
  8 28  1  0
  6  2  1  0
 28  2  1  0
  2  1  1  0
 25 24  2  0
  1 24  1  0
  1 26  1  0
 24  3  1  0
 10 15  1  0
  4 26  1  0
  4  7  1  0
 26  5  1  0
  3 15  2  0
  3 18  1  0
 15 16  1  0
  7 11  1  0
  5 27  1  0
 23 22  1  0
 11 27  1  0
 16 17  1  0
 18  9  1  0
 18 17  2  0
 22  9  1  0
 22 21  2  0
  9 13  2  0
 21 14  1  0
 13 19  1  0
 14 19  2  0
 14 20  1  0
  2 30  1  0
  4 31  1  0
  4 32  1  0
  5 33  1  0
  5 34  1  0
  6 35  1  0
  6 36  1  0
  7 37  1  0
  7 38  1  0
  8 39  1  0
  8 40  1  0
 10 41  1  0
 10 42  1  0
 10 43  1  0
 11 44  1  0
 11 45  1  0
 12 46  1  0
 12 47  1  0
 13 48  1  0
 19 49  1  0
 21 50  1  0
 26 51  1  0
 27 52  1  0
 27 53  1  0
 28 54  1  0
 28 55  1  0
 29 56  1  0
 29 57  1  0
A    1
N1
A    2
C4
A    3
C5
A    4
C7
A    5
C8
A    6
C10
A    7
C13
A    8
C15
A    9
C17
A   10
C20
A   11
C21
A   12
C22
A   13
C24
A   14
C28
A   15
C12
A   16
O19
A   17
N18
A   18
C11
A   19
C27
A   20
CL29
A   21
C25
A   22
C23
A   23
CL26
A   24
C2
A   25
O6
A   26
C3
A   27
C14
A   28
C9
A   29
C16
M  END
