5Q12_9MA_A_501
     RDKit          3D

 46 49  0  0  0  0  0  0  0  0999 V2000
  -13.8230   50.9420    6.2550 N   0  0  0  0  0  0  0  0  0  0  0  0
  -15.9230   52.4010   10.3630 C   0  0  0  0  0  0  0  0  0  0  0  0
  -15.8070   52.1670    8.9650 C   0  0  0  0  0  0  0  0  0  0  0  0
  -13.5420   51.2300    9.3710 C   0  0  0  0  0  0  0  0  0  0  0  0
  -13.7010   51.4720   10.7040 C   0  0  0  0  0  0  0  0  0  0  0  0
  -14.9290   48.8020    5.6890 C   0  0  0  0  0  0  0  0  0  0  0  0
  -15.0180   48.0900    3.3700 C   0  0  0  0  0  0  0  0  0  0  0  0
  -15.3100   47.8840    4.7100 C   0  0  0  0  0  0  0  0  0  0  0  0
  -16.6210   52.0620    5.4880 C   0  0  0  0  0  0  0  0  0  0  0  0
  -16.2070   52.9860    4.5370 C   0  0  0  0  0  0  0  0  0  0  0  0
  -17.6370   51.2000    5.0800 C   0  0  0  0  0  0  0  0  0  0  0  0
  -18.2140   51.2420    3.8330 C   0  0  0  0  0  0  0  0  0  0  0  0
  -13.1850   51.4200    3.4340 C   0  0  0  0  0  0  0  0  0  0  0  0
  -13.9260   50.1890    3.8990 C   0  0  0  0  0  0  0  0  0  0  0  0
  -14.3360   49.2290    2.9710 C   0  0  0  0  0  0  0  0  0  0  0  0
  -15.2670   48.5320    7.1440 C   0  0  0  0  0  0  0  0  0  0  0  0
  -14.2320   49.9620    5.2730 C   0  0  0  0  0  0  0  0  0  0  0  0
  -14.7610   51.4710    7.1090 C   0  0  0  0  0  0  0  0  0  0  0  0
  -16.0150   51.9820    6.8310 C   0  0  0  0  0  0  0  0  0  0  0  0
  -16.6560   52.4070    7.9680 N   0  0  0  0  0  0  0  0  0  0  0  0
  -14.8960   52.0620   11.2060 C   0  0  0  0  0  0  0  0  0  0  0  0
  -12.3060   50.6180    8.8130 C   0  0  0  0  0  0  0  0  0  0  0  0
  -14.6100   51.5830    8.5050 N   0  0  0  0  0  0  0  0  0  0  0  0
  -15.2210   53.8450    4.8780 F   0  0  0  0  0  0  0  0  0  0  0  0
  -16.7500   53.0730    3.2720 C   0  0  0  0  0  0  0  0  0  0  0  0
  -17.7640   52.1900    2.9260 C   0  0  0  0  0  0  0  0  0  0  0  0
  -18.0760   50.2770    5.9660 F   0  0  0  0  0  0  0  0  0  0  0  0
  -12.8389   51.2404    6.3137 H   0  0  0  0  0  0  0  0  0  0  0  0
  -16.8389   52.8551   10.7691 H   0  0  0  0  0  0  0  0  0  0  0  0
  -12.8934   51.2072   11.4023 H   0  0  0  0  0  0  0  0  0  0  0  0
  -15.3287   47.3468    2.6209 H   0  0  0  0  0  0  0  0  0  0  0  0
  -15.8546   46.9758    5.0078 H   0  0  0  0  0  0  0  0  0  0  0  0
  -19.0151   50.5392    3.5604 H   0  0  0  0  0  0  0  0  0  0  0  0
  -12.8404   51.9925    4.3078 H   0  0  0  0  0  0  0  0  0  0  0  0
  -12.3179   51.1189    2.8277 H   0  0  0  0  0  0  0  0  0  0  0  0
  -13.8569   52.0453    2.8277 H   0  0  0  0  0  0  0  0  0  0  0  0
  -14.1137   49.3795    1.9043 H   0  0  0  0  0  0  0  0  0  0  0  0
  -14.5719   49.0872    7.7910 H   0  0  0  0  0  0  0  0  0  0  0  0
  -16.2976   48.8583    7.3477 H   0  0  0  0  0  0  0  0  0  0  0  0
  -15.1764   47.4548    7.3477 H   0  0  0  0  0  0  0  0  0  0  0  0
  -14.9966   52.2484   12.2854 H   0  0  0  0  0  0  0  0  0  0  0  0
  -11.6528   50.2946    9.6369 H   0  0  0  0  0  0  0  0  0  0  0  0
  -12.5742   49.7486    8.1948 H   0  0  0  0  0  0  0  0  0  0  0  0
  -11.7771   51.3584    8.1948 H   0  0  0  0  0  0  0  0  0  0  0  0
  -16.3882   53.8241    2.5544 H   0  0  0  0  0  0  0  0  0  0  0  0
  -18.2144   52.2427    1.9238 H   0  0  0  0  0  0  0  0  0  0  0  0
 26 25  1  0
 26 12  2  0
 15  7  2  0
 15 14  1  0
 25 10  2  0
  7  8  1  0
 13 14  1  0
 12 11  1  0
 14 17  2  0
 10 24  1  0
 10  9  1  0
  8  6  2  0
 11  9  2  0
 11 27  1  0
 17  6  1  0
 17  1  1  0
  9 19  1  0
  6 16  1  0
  1 18  1  0
 19 18  2  0
 19 20  1  0
 18 23  1  0
 20  3  2  0
 23  3  1  0
 23  4  1  0
 22  4  1  0
  3  2  1  0
  4  5  2  0
  2 21  2  0
  5 21  1  0
  1 28  1  0
  2 29  1  0
  5 30  1  0
  7 31  1  0
  8 32  1  0
 12 33  1  0
 13 34  1  0
 13 35  1  0
 13 36  1  0
 15 37  1  0
 16 38  1  0
 16 39  1  0
 16 40  1  0
 21 41  1  0
 22 42  1  0
 22 43  1  0
 22 44  1  0
 25 45  1  0
 26 46  1  0
A    1
N3
A    2
C4
A    3
C5
A    4
C7
A    5
C8
A    6
C13
A    7
C15
A    8
C17
A    9
C20
A   10
C21
A   11
C22
A   12
C26
A   13
C19
A   14
C14
A   15
C16
A   16
C18
A   17
C12
A   18
C2
A   19
C1
A   20
N10
A   21
C9
A   22
C11
A   23
N6
A   24
F24
A   25
C27
A   26
C25
A   27
F23
M  END
