5Q14_9MM_A_501
     RDKit          3D

 61 65  0  0  0  0  0  0  0  0999 V2000
   13.2640   24.1690    3.8230 N   0  0  0  0  0  0  0  0  0  0  0  0
   13.5180   25.6800    2.1720 N   0  0  0  0  0  0  0  0  0  0  0  0
   12.0260   24.8040    3.6730 C   0  0  0  0  0  0  0  0  0  0  0  0
   12.2040   25.7300    2.6470 C   0  0  0  0  0  0  0  0  0  0  0  0
   10.8190   24.6380    4.3370 C   0  0  0  0  0  0  0  0  0  0  0  0
   13.6470   23.0700    4.7890 C   0  0  0  0  0  0  0  0  0  0  0  0
   11.1330   26.5370    2.2580 C   0  0  0  0  0  0  0  0  0  0  0  0
    9.2080   18.0850    0.7230 C   0  0  0  0  0  0  0  0  0  0  0  0
   10.2410   18.9720    1.3340 C   0  0  0  0  0  0  0  0  0  0  0  0
   10.9340   21.1470    2.0120 C   0  0  0  0  0  0  0  0  0  0  0  0
   12.1380   20.6730    2.4810 C   0  0  0  0  0  0  0  0  0  0  0  0
   11.4530   18.4630    1.8060 C   0  0  0  0  0  0  0  0  0  0  0  0
   12.4080   19.3040    2.3820 C   0  0  0  0  0  0  0  0  0  0  0  0
   13.5380   23.5320    6.2530 C   0  0  0  0  0  0  0  0  0  0  0  0
   15.8380   23.1970    2.0010 C   0  0  0  0  0  0  0  0  0  0  0  0
   12.8290   21.8190    4.4660 C   0  0  0  0  0  0  0  0  0  0  0  0
   12.9840   21.5990    3.0310 O   0  0  0  0  0  0  0  0  0  0  0  0
    9.9850   20.3340    1.4440 C   0  0  0  0  0  0  0  0  0  0  0  0
   10.6770   22.4710    2.1140 F   0  0  0  0  0  0  0  0  0  0  0  0
    9.4880   16.8290    0.7180 O   0  0  0  0  0  0  0  0  0  0  0  0
    8.1740   18.5310    0.2720 O   0  0  0  0  0  0  0  0  0  0  0  0
   14.0890   22.4660    7.2210 C   0  0  0  0  0  0  0  0  0  0  0  0
   13.9690   22.8970    8.6910 C   0  0  0  0  0  0  0  0  0  0  0  0
   14.6800   24.2170    8.9390 C   0  0  0  0  0  0  0  0  0  0  0  0
   14.1600   25.3220    7.9730 C   0  0  0  0  0  0  0  0  0  0  0  0
   14.2570   24.8640    6.4860 C   0  0  0  0  0  0  0  0  0  0  0  0
    9.7810   25.4350    3.9350 C   0  0  0  0  0  0  0  0  0  0  0  0
    9.9300   26.3650    2.9210 C   0  0  0  0  0  0  0  0  0  0  0  0
   14.1060   24.7380    2.8950 C   0  0  0  0  0  0  0  0  0  0  0  0
   15.5140   24.3370    2.7370 C   0  0  0  0  0  0  0  0  0  0  0  0
   16.5440   25.0650    3.3330 C   0  0  0  0  0  0  0  0  0  0  0  0
   17.8690   24.6700    3.1860 C   0  0  0  0  0  0  0  0  0  0  0  0
   18.1550   23.5410    2.4450 C   0  0  0  0  0  0  0  0  0  0  0  0
   17.1550   22.7990    1.8520 C   0  0  0  0  0  0  0  0  0  0  0  0
   19.8110   23.0370    2.2570 Cl  0  0  0  0  0  0  0  0  0  0  0  0
    8.8730   27.1190    2.5780 F   0  0  0  0  0  0  0  0  0  0  0  0
    8.5740   25.3130    4.5470 F   0  0  0  0  0  0  0  0  0  0  0  0
   10.7019   23.9024    5.1464 H   0  0  0  0  0  0  0  0  0  0  0  0
   14.7089   22.8120    4.6637 H   0  0  0  0  0  0  0  0  0  0  0  0
   11.2411   27.2812    1.4552 H   0  0  0  0  0  0  0  0  0  0  0  0
   11.6582   17.3855    1.7230 H   0  0  0  0  0  0  0  0  0  0  0  0
   13.3596   18.8953    2.7528 H   0  0  0  0  0  0  0  0  0  0  0  0
   12.4670   23.6774    6.4573 H   0  0  0  0  0  0  0  0  0  0  0  0
   15.0363   22.6069    1.5331 H   0  0  0  0  0  0  0  0  0  0  0  0
   11.7699   21.9792    4.7163 H   0  0  0  0  0  0  0  0  0  0  0  0
   13.1727   20.9506    5.0472 H   0  0  0  0  0  0  0  0  0  0  0  0
    9.0354   20.7542    1.0810 H   0  0  0  0  0  0  0  0  0  0  0  0
    9.5964   16.3426    1.5734 H   0  0  0  0  0  0  0  0  0  0  0  0
   13.5243   21.5328    7.0785 H   0  0  0  0  0  0  0  0  0  0  0  0
   15.1569   22.3269    6.9967 H   0  0  0  0  0  0  0  0  0  0  0  0
   12.9048   23.0098    8.9456 H   0  0  0  0  0  0  0  0  0  0  0  0
   14.4396   22.1258    9.3185 H   0  0  0  0  0  0  0  0  0  0  0  0
   15.7597   24.0793    8.7799 H   0  0  0  0  0  0  0  0  0  0  0  0
   14.4798   24.5336    9.9733 H   0  0  0  0  0  0  0  0  0  0  0  0
   14.7651   26.2305    8.1086 H   0  0  0  0  0  0  0  0  0  0  0  0
   13.1037   25.5201    8.2077 H   0  0  0  0  0  0  0  0  0  0  0  0
   15.3174   24.7479    6.2177 H   0  0  0  0  0  0  0  0  0  0  0  0
   13.7723   25.6281    5.8606 H   0  0  0  0  0  0  0  0  0  0  0  0
   16.3055   25.9607    3.9253 H   0  0  0  0  0  0  0  0  0  0  0  0
   18.6785   25.2494    3.6539 H   0  0  0  0  0  0  0  0  0  0  0  0
   17.4016   21.9007    1.2670 H   0  0  0  0  0  0  0  0  0  0  0  0
 21  8  2  0
 20  8  1  0
  8  9  1  0
  9 18  2  0
  9 12  1  0
 18 10  1  0
 12 13  2  0
 34 15  2  0
 34 33  1  0
 15 30  1  0
 10 19  1  0
 10 11  2  0
  2  4  1  0
  2 29  2  0
 35 33  1  0
  7  4  2  0
  7 28  1  0
 13 11  1  0
 33 32  2  0
 11 17  1  0
 36 28  1  0
  4  3  1  0
 30 29  1  0
 30 31  2  0
 29  1  1  0
 28 27  2  0
 17 16  1  0
 32 31  1  0
  3  1  1  0
  3  5  2  0
  1  6  1  0
 27  5  1  0
 27 37  1  0
 16  6  1  0
  6 14  1  0
 14 26  1  0
 14 22  1  0
 26 25  1  0
 22 23  1  0
 25 24  1  0
 23 24  1  0
  5 38  1  0
  6 39  1  0
  7 40  1  0
 12 41  1  0
 13 42  1  0
 14 43  1  0
 15 44  1  0
 16 45  1  0
 16 46  1  0
 18 47  1  0
 20 48  1  0
 22 49  1  0
 22 50  1  0
 23 51  1  0
 23 52  1  0
 24 53  1  0
 24 54  1  0
 25 55  1  0
 25 56  1  0
 26 57  1  0
 26 58  1  0
 31 59  1  0
 32 60  1  0
 34 61  1  0
A    1
N1
A    2
N3
A    3
C4
A    4
C5
A    5
C6
A    6
C7
A    7
C8
A    8
C10
A    9
C13
A   10
C15
A   11
C17
A   12
C20
A   13
C21
A   14
C22
A   15
C24
A   16
C14
A   17
O18
A   18
C16
A   19
F27
A   20
O19
A   21
O28
A   22
C33
A   23
C35
A   24
C37
A   25
C36
A   26
C34
A   27
C9
A   28
C12
A   29
C2
A   30
C11
A   31
C23
A   32
C31
A   33
C29
A   34
C30
A   35
CL32
A   36
F26
A   37
F25
M  END
