5Q15_9MP_A_501
     RDKit          3D

 71 75  0  0  0  0  0  0  0  0999 V2000
   24.1530   16.9310   99.6630 C   0  0  0  0  0  0  0  0  0  0  0  0
   24.0920   16.0020   98.6270 C   0  0  0  0  0  0  0  0  0  0  0  0
   25.2310   15.2740   98.2790 C   0  0  0  0  0  0  0  0  0  0  0  0
   22.4110   18.5350  100.7160 C   0  0  0  0  0  0  0  0  0  0  0  0
   21.6150   18.7080  104.5600 C   0  0  0  0  0  0  0  0  0  0  0  0
   24.6250   23.0310   96.3080 C   0  0  0  0  0  0  0  0  0  0  0  0
   22.7410   22.2740   97.8040 C   0  0  0  0  0  0  0  0  0  0  0  0
   23.7130   21.4930   98.6840 C   0  0  0  0  0  0  0  0  0  0  0  0
   21.1980   17.2410  104.7710 C   0  0  0  0  0  0  0  0  0  0  0  0
   22.0480   16.6660  102.4530 C   0  0  0  0  0  0  0  0  0  0  0  0
   21.5810   19.0860  103.0640 C   0  0  0  0  0  0  0  0  0  0  0  0
   26.3800   15.5170   99.0010 C   0  0  0  0  0  0  0  0  0  0  0  0
   26.4140   16.4420  100.0280 C   0  0  0  0  0  0  0  0  0  0  0  0
   25.3070   17.1680  100.3840 C   0  0  0  0  0  0  0  0  0  0  0  0
   22.8200   15.9620   98.0770 N   0  0  0  0  0  0  0  0  0  0  0  0
   22.1170   16.8360   98.7600 C   0  0  0  0  0  0  0  0  0  0  0  0
   22.8560   17.4760   99.7660 N   0  0  0  0  0  0  0  0  0  0  0  0
   23.2100   19.8160  100.4260 C   0  0  0  0  0  0  0  0  0  0  0  0
   23.9340   20.3290  101.2750 O   0  0  0  0  0  0  0  0  0  0  0  0
   23.0580   20.3000   99.1930 N   0  0  0  0  0  0  0  0  0  0  0  0
   23.4230   23.4670   97.1280 C   0  0  0  0  0  0  0  0  0  0  0  0
   25.6350   22.2980   97.1800 C   0  0  0  0  0  0  0  0  0  0  0  0
   24.9830   21.0830   97.8920 C   0  0  0  0  0  0  0  0  0  0  0  0
   22.4650   18.1500  102.2090 C   0  0  0  0  0  0  0  0  0  0  0  0
   22.0700   16.2980  103.9470 C   0  0  0  0  0  0  0  0  0  0  0  0
   20.6740   17.0950   98.4480 C   0  0  0  0  0  0  0  0  0  0  0  0
   19.6830   16.6720   99.4950 C   0  0  0  0  0  0  0  0  0  0  0  0
   19.7610   15.4140  100.0830 C   0  0  0  0  0  0  0  0  0  0  0  0
   18.8440   15.0270  101.0480 C   0  0  0  0  0  0  0  0  0  0  0  0
   17.8380   15.8910  101.4350 C   0  0  0  0  0  0  0  0  0  0  0  0
   17.7490   17.1440  100.8550 C   0  0  0  0  0  0  0  0  0  0  0  0
   18.6650   17.5340   99.8920 C   0  0  0  0  0  0  0  0  0  0  0  0
   20.5130   18.4730   98.1180 O   0  0  0  0  0  0  0  0  0  0  0  0
   20.5100   18.7210   96.7180 C   0  0  0  0  0  0  0  0  0  0  0  0
   27.5710   16.6350  100.6970 F   0  0  0  0  0  0  0  0  0  0  0  0
   27.5070   14.8350   98.7010 F   0  0  0  0  0  0  0  0  0  0  0  0
   25.2126   14.5370   97.4626 H   0  0  0  0  0  0  0  0  0  0  0  0
   21.3373   18.6945  100.5376 H   0  0  0  0  0  0  0  0  0  0  0  0
   22.6363   18.8498  104.9432 H   0  0  0  0  0  0  0  0  0  0  0  0
   20.9064   19.3536  105.0995 H   0  0  0  0  0  0  0  0  0  0  0  0
   25.1039   23.9188   95.8694 H   0  0  0  0  0  0  0  0  0  0  0  0
   24.2832   22.3501   95.5146 H   0  0  0  0  0  0  0  0  0  0  0  0
   21.9131   22.6428   98.4274 H   0  0  0  0  0  0  0  0  0  0  0  0
   22.3718   21.5991   97.0178 H   0  0  0  0  0  0  0  0  0  0  0  0
   24.0179   22.1422   99.5180 H   0  0  0  0  0  0  0  0  0  0  0  0
   20.1483   17.1184  104.4658 H   0  0  0  0  0  0  0  0  0  0  0  0
   21.3228   16.9919  105.8351 H   0  0  0  0  0  0  0  0  0  0  0  0
   21.0297   16.5151  102.0653 H   0  0  0  0  0  0  0  0  0  0  0  0
   22.7718   16.0205  101.9339 H   0  0  0  0  0  0  0  0  0  0  0  0
   21.9436   20.1183  102.9504 H   0  0  0  0  0  0  0  0  0  0  0  0
   20.5433   18.9873  102.7126 H   0  0  0  0  0  0  0  0  0  0  0  0
   25.3363   17.9022  101.2026 H   0  0  0  0  0  0  0  0  0  0  0  0
   22.4303   19.7909   98.5545 H   0  0  0  0  0  0  0  0  0  0  0  0
   23.7561   24.1739   97.9022 H   0  0  0  0  0  0  0  0  0  0  0  0
   22.6971   23.9407   96.4507 H   0  0  0  0  0  0  0  0  0  0  0  0
   26.4629   21.9424   96.5490 H   0  0  0  0  0  0  0  0  0  0  0  0
   26.0041   22.9948   97.9470 H   0  0  0  0  0  0  0  0  0  0  0  0
   24.7048   20.3342   97.1357 H   0  0  0  0  0  0  0  0  0  0  0  0
   25.7130   20.6722   98.6050 H   0  0  0  0  0  0  0  0  0  0  0  0
   23.5142   18.2649  102.5189 H   0  0  0  0  0  0  0  0  0  0  0  0
   21.6966   15.2703  104.0670 H   0  0  0  0  0  0  0  0  0  0  0  0
   23.1057   16.3844  104.3073 H   0  0  0  0  0  0  0  0  0  0  0  0
   20.4327   16.4456   97.5935 H   0  0  0  0  0  0  0  0  0  0  0  0
   20.5581   14.7194   99.7794 H   0  0  0  0  0  0  0  0  0  0  0  0
   18.9176   14.0298  101.5065 H   0  0  0  0  0  0  0  0  0  0  0  0
   17.1107   15.5841  102.2011 H   0  0  0  0  0  0  0  0  0  0  0  0
   16.9477   17.8331  101.1599 H   0  0  0  0  0  0  0  0  0  0  0  0
   18.5873   18.5327   99.4375 H   0  0  0  0  0  0  0  0  0  0  0  0
   20.4969   19.8061   96.5379 H   0  0  0  0  0  0  0  0  0  0  0  0
   21.4135   18.2853   96.2665 H   0  0  0  0  0  0  0  0  0  0  0  0
   19.6173   18.2635   96.2665 H   0  0  0  0  0  0  0  0  0  0  0  0
 34 33  1  0
 15  2  1  0
 15 16  2  0
  3  2  2  0
  3 12  1  0
 36 12  1  0
  6 22  1  0
  6 21  1  0
  2  1  1  0
 26 33  1  0
 26 16  1  0
 26 27  1  0
 12 13  2  0
 16 17  1  0
 22 23  1  0
 21  7  1  0
 27 28  2  0
 27 32  1  0
 23  8  1  0
 28 29  1  0
  7  8  1  0
  1 17  1  0
  1 14  2  0
 32 31  2  0
 17  4  1  0
 13 14  1  0
 13 35  1  0
  8 20  1  0
 29 30  2  0
 20 18  1  0
 31 30  1  0
  4 18  1  0
  4 24  1  0
 18 19  2  0
 10 24  1  0
 10 25  1  0
 24 11  1  0
 25  9  1  0
 11  5  1  0
  9  5  1  0
  3 37  1  0
  4 38  1  0
  5 39  1  0
  5 40  1  0
  6 41  1  0
  6 42  1  0
  7 43  1  0
  7 44  1  0
  8 45  1  0
  9 46  1  0
  9 47  1  0
 10 48  1  0
 10 49  1  0
 11 50  1  0
 11 51  1  0
 14 52  1  0
 20 53  1  0
 21 54  1  0
 21 55  1  0
 22 56  1  0
 22 57  1  0
 23 58  1  0
 23 59  1  0
 24 60  1  0
 25 61  1  0
 25 62  1  0
 26 63  1  0
 28 64  1  0
 29 65  1  0
 30 66  1  0
 31 67  1  0
 32 68  1  0
 34 69  1  0
 34 70  1  0
 34 71  1  0
A    1
C4
A    2
C5
A    3
C6
A    4
C10
A    5
C15
A    6
C17
A    7
C21
A    8
C22
A    9
C24
A   10
C26
A   11
C28
A   12
C1
A   13
C2
A   14
C3
A   15
N7
A   16
C9
A   17
N8
A   18
C11
A   19
O12
A   20
N13
A   21
C18
A   22
C16
A   23
C23
A   24
C27
A   25
C25
A   26
C14
A   27
C29
A   28
C30
A   29
C31
A   30
C32
A   31
C33
A   32
C34
A   33
O35
A   34
C36
A   35
F20
A   36
F19
M  END
