5Q19_9N1_A_500
     RDKit          3D

 72 76  0  0  0  0  0  0  0  0999 V2000
   13.6580   25.9730    2.4950 N   0  0  0  0  0  0  0  0  0  0  0  0
   15.7170   24.8600    3.2300 C   0  0  0  0  0  0  0  0  0  0  0  0
   12.9570   22.0090    4.6620 C   0  0  0  0  0  0  0  0  0  0  0  0
   13.7440   23.2780    5.0200 C   0  0  0  0  0  0  0  0  0  0  0  0
   12.0900   24.8790    3.7580 C   0  0  0  0  0  0  0  0  0  0  0  0
   12.3000   25.8630    2.7980 C   0  0  0  0  0  0  0  0  0  0  0  0
   18.4810   24.4420    3.1610 C   0  0  0  0  0  0  0  0  0  0  0  0
   11.2110   26.5710    2.2900 C   0  0  0  0  0  0  0  0  0  0  0  0
   14.0500   25.1300    6.7680 C   0  0  0  0  0  0  0  0  0  0  0  0
   15.6450   22.7340    0.4160 C   0  0  0  0  0  0  0  0  0  0  0  0
   13.4220   19.6500    1.9180 C   0  0  0  0  0  0  0  0  0  0  0  0
    9.7410   25.2850    3.7230 C   0  0  0  0  0  0  0  0  0  0  0  0
   12.2400   21.4430    5.4850 O   0  0  0  0  0  0  0  0  0  0  0  0
   13.1110   21.5870    3.4040 N   0  0  0  0  0  0  0  0  0  0  0  0
   12.4530   20.4070    2.8440 C   0  0  0  0  0  0  0  0  0  0  0  0
   11.1910   20.8350    2.0850 C   0  0  0  0  0  0  0  0  0  0  0  0
   10.5040   19.6340    1.3890 C   0  0  0  0  0  0  0  0  0  0  0  0
   11.4690   18.9040    0.4620 C   0  0  0  0  0  0  0  0  0  0  0  0
   12.7230   18.4520    1.2310 C   0  0  0  0  0  0  0  0  0  0  0  0
   13.5870   23.6790    6.5080 C   0  0  0  0  0  0  0  0  0  0  0  0
   14.3600   22.7260    7.4300 C   0  0  0  0  0  0  0  0  0  0  0  0
   14.1730   23.0850    8.9080 C   0  0  0  0  0  0  0  0  0  0  0  0
   14.6190   24.5180    9.1910 C   0  0  0  0  0  0  0  0  0  0  0  0
   13.9010   25.5270    8.2610 C   0  0  0  0  0  0  0  0  0  0  0  0
   13.3710   24.3770    4.0500 N   0  0  0  0  0  0  0  0  0  0  0  0
   10.8170   24.5710    4.2390 C   0  0  0  0  0  0  0  0  0  0  0  0
    9.9330   26.2710    2.7640 C   0  0  0  0  0  0  0  0  0  0  0  0
   14.2580   25.0750    3.2560 C   0  0  0  0  0  0  0  0  0  0  0  0
   16.5880   25.6920    3.9510 C   0  0  0  0  0  0  0  0  0  0  0  0
   17.9600   25.4840    3.9180 C   0  0  0  0  0  0  0  0  0  0  0  0
   19.8520   24.2840    3.1670 O   0  0  0  0  0  0  0  0  0  0  0  0
   20.4380   23.3780    2.2170 C   0  0  0  0  0  0  0  0  0  0  0  0
   17.6380   23.6050    2.4380 C   0  0  0  0  0  0  0  0  0  0  0  0
   16.2680   23.8150    2.4710 C   0  0  0  0  0  0  0  0  0  0  0  0
   15.3680   23.0300    1.7850 O   0  0  0  0  0  0  0  0  0  0  0  0
   14.8205   23.0790    4.9122 H   0  0  0  0  0  0  0  0  0  0  0  0
   11.3568   27.3520    1.5292 H   0  0  0  0  0  0  0  0  0  0  0  0
   15.1074   25.2229    6.4793 H   0  0  0  0  0  0  0  0  0  0  0  0
   13.4153   25.8021    6.1718 H   0  0  0  0  0  0  0  0  0  0  0  0
   16.3956   21.9319    0.3589 H   0  0  0  0  0  0  0  0  0  0  0  0
   14.7206   22.4073   -0.0828 H   0  0  0  0  0  0  0  0  0  0  0  0
   16.0322   23.6347   -0.0828 H   0  0  0  0  0  0  0  0  0  0  0  0
   14.2689   19.2776    2.5130 H   0  0  0  0  0  0  0  0  0  0  0  0
   13.7695   20.3432    1.1378 H   0  0  0  0  0  0  0  0  0  0  0  0
    8.7237   25.0658    4.0794 H   0  0  0  0  0  0  0  0  0  0  0  0
   13.7341   22.1282    2.7878 H   0  0  0  0  0  0  0  0  0  0  0  0
   12.1601   19.7286    3.6588 H   0  0  0  0  0  0  0  0  0  0  0  0
   11.4687   21.5774    1.3223 H   0  0  0  0  0  0  0  0  0  0  0  0
   10.4828   21.2605    2.8112 H   0  0  0  0  0  0  0  0  0  0  0  0
    9.6506   20.0015    0.8002 H   0  0  0  0  0  0  0  0  0  0  0  0
   10.1680   18.9296    2.1642 H   0  0  0  0  0  0  0  0  0  0  0  0
   11.7687   19.5799   -0.3524 H   0  0  0  0  0  0  0  0  0  0  0  0
   10.9645   18.0158    0.0539 H   0  0  0  0  0  0  0  0  0  0  0  0
   12.4290   17.7204    1.9980 H   0  0  0  0  0  0  0  0  0  0  0  0
   13.4268   18.0026    0.5150 H   0  0  0  0  0  0  0  0  0  0  0  0
   12.5131   23.6086    6.7355 H   0  0  0  0  0  0  0  0  0  0  0  0
   13.9989   21.7002    7.2646 H   0  0  0  0  0  0  0  0  0  0  0  0
   15.4301   22.8128    7.1905 H   0  0  0  0  0  0  0  0  0  0  0  0
   13.1096   22.9822    9.1701 H   0  0  0  0  0  0  0  0  0  0  0  0
   14.7900   22.4034    9.5119 H   0  0  0  0  0  0  0  0  0  0  0  0
   15.7046   24.5933    9.0306 H   0  0  0  0  0  0  0  0  0  0  0  0
   14.3605   24.7620   10.2320 H   0  0  0  0  0  0  0  0  0  0  0  0
   14.3385   26.5251    8.4108 H   0  0  0  0  0  0  0  0  0  0  0  0
   12.8302   25.5270    8.5129 H   0  0  0  0  0  0  0  0  0  0  0  0
   10.6696   23.7905    5.0000 H   0  0  0  0  0  0  0  0  0  0  0  0
    9.0659   26.8231    2.3726 H   0  0  0  0  0  0  0  0  0  0  0  0
   16.1782   26.5190    4.5495 H   0  0  0  0  0  0  0  0  0  0  0  0
   18.6321   26.1415    4.4889 H   0  0  0  0  0  0  0  0  0  0  0  0
   20.9597   22.5715    2.7531 H   0  0  0  0  0  0  0  0  0  0  0  0
   19.6472   22.9469    1.5855 H   0  0  0  0  0  0  0  0  0  0  0  0
   21.1555   23.9224    1.5855 H   0  0  0  0  0  0  0  0  0  0  0  0
   18.0563   22.7800    1.8426 H   0  0  0  0  0  0  0  0  0  0  0  0
 10 35  1  0
 18 19  1  0
 18 17  1  0
 19 11  1  0
 17 16  1  0
 35 34  1  0
 11 15  1  0
 16 15  1  0
 32 31  1  0
  8 27  1  0
  8  6  2  0
 33 34  1  0
 33  7  2  0
 34  2  2  0
  1  6  1  0
  1 28  2  0
 27 12  2  0
  6  5  1  0
 15 14  1  0
  7 31  1  0
  7 30  1  0
  2 28  1  0
  2 29  1  0
 28 25  1  0
 14  3  1  0
 12 26  1  0
  5 25  1  0
  5 26  2  0
 30 29  2  0
 25  4  1  0
  3  4  1  0
  3 13  2  0
  4 20  1  0
 20  9  1  0
 20 21  1  0
  9 24  1  0
 21 22  1  0
 24 23  1  0
 22 23  1  0
  4 36  1  0
  8 37  1  0
  9 38  1  0
  9 39  1  0
 10 40  1  0
 10 41  1  0
 10 42  1  0
 11 43  1  0
 11 44  1  0
 12 45  1  0
 14 46  1  0
 15 47  1  0
 16 48  1  0
 16 49  1  0
 17 50  1  0
 17 51  1  0
 18 52  1  0
 18 53  1  0
 19 54  1  0
 19 55  1  0
 20 56  1  0
 21 57  1  0
 21 58  1  0
 22 59  1  0
 22 60  1  0
 23 61  1  0
 23 62  1  0
 24 63  1  0
 24 64  1  0
 26 65  1  0
 27 66  1  0
 29 67  1  0
 30 68  1  0
 32 69  1  0
 32 70  1  0
 32 71  1  0
 33 72  1  0
A    1
N3
A    2
C4
A    3
C5
A    4
C6
A    5
C7
A    6
C8
A    7
C15
A    8
C21
A    9
C22
A   10
C24
A   11
C26
A   12
C28
A   13
O13
A   14
N10
A   15
C18
A   16
C27
A   17
C33
A   18
C34
A   19
C32
A   20
C14
A   21
C23
A   22
C30
A   23
C35
A   24
C31
A   25
N2
A   26
C19
A   27
C29
A   28
C1
A   29
C11
A   30
C16
A   31
O20
A   32
C25
A   33
C12
A   34
C9
A   35
O17
M  END
