5Q1F_9NJ_A_501
     RDKit          3D

 74 78  0  0  0  0  0  0  0  0999 V2000
   13.1370   26.0660    2.3550 N   0  0  0  0  0  0  0  0  0  0  0  0
   15.2190   24.8730    2.9450 C   0  0  0  0  0  0  0  0  0  0  0  0
   11.7970   25.9650    2.7280 C   0  0  0  0  0  0  0  0  0  0  0  0
   12.5500   21.8990    4.3700 C   0  0  0  0  0  0  0  0  0  0  0  0
   11.6200   24.9370    3.6500 C   0  0  0  0  0  0  0  0  0  0  0  0
   15.7600   23.8950    2.0850 C   0  0  0  0  0  0  0  0  0  0  0  0
   13.3100   23.2590    4.7420 C   0  0  0  0  0  0  0  0  0  0  0  0
   16.1220   25.6010    3.7220 C   0  0  0  0  0  0  0  0  0  0  0  0
   17.9100   24.3570    2.7310 C   0  0  0  0  0  0  0  0  0  0  0  0
   13.1800   23.6400    6.2400 C   0  0  0  0  0  0  0  0  0  0  0  0
    9.4680   26.3870    2.8620 C   0  0  0  0  0  0  0  0  0  0  0  0
   10.5960   19.2620    0.6300 C   0  0  0  0  0  0  0  0  0  0  0  0
   17.4890   25.3510    3.6230 C   0  0  0  0  0  0  0  0  0  0  0  0
   11.2780   20.6400    2.6450 C   0  0  0  0  0  0  0  0  0  0  0  0
   19.7170   22.8750    2.1840 C   0  0  0  0  0  0  0  0  0  0  0  0
   19.2670   24.1360    2.6550 O   0  0  0  0  0  0  0  0  0  0  0  0
   14.8760   23.1950    1.3420 O   0  0  0  0  0  0  0  0  0  0  0  0
   15.3990   22.2290    0.4240 C   0  0  0  0  0  0  0  0  0  0  0  0
   17.0690   23.6380    1.9720 N   0  0  0  0  0  0  0  0  0  0  0  0
   13.7600   25.1160    3.0360 C   0  0  0  0  0  0  0  0  0  0  0  0
   10.6940   26.7080    2.3230 C   0  0  0  0  0  0  0  0  0  0  0  0
    8.3900   27.1110    2.4710 F   0  0  0  0  0  0  0  0  0  0  0  0
    9.2750   25.3700    3.7760 C   0  0  0  0  0  0  0  0  0  0  0  0
   10.3730   24.6220    4.1850 C   0  0  0  0  0  0  0  0  0  0  0  0
   12.8980   24.3900    3.8370 N   0  0  0  0  0  0  0  0  0  0  0  0
   14.0990   22.7870    7.1250 C   0  0  0  0  0  0  0  0  0  0  0  0
   13.9410   23.1360    8.6100 C   0  0  0  0  0  0  0  0  0  0  0  0
   14.2120   24.6190    8.8700 C   0  0  0  0  0  0  0  0  0  0  0  0
   13.3430   25.5220    7.9640 C   0  0  0  0  0  0  0  0  0  0  0  0
   13.4890   25.1330    6.4810 C   0  0  0  0  0  0  0  0  0  0  0  0
   12.4810   20.9810    5.1840 O   0  0  0  0  0  0  0  0  0  0  0  0
   12.0080   21.8250    3.1370 N   0  0  0  0  0  0  0  0  0  0  0  0
    9.8490   20.6010    3.1690 C   0  0  0  0  0  0  0  0  0  0  0  0
    9.1210   19.3120    2.7270 C   0  0  0  0  0  0  0  0  0  0  0  0
    9.1300   19.1520    1.1750 C   0  0  0  0  0  0  0  0  0  0  0  0
   11.2840   20.5560    1.1280 C   0  0  0  0  0  0  0  0  0  0  0  0
    8.4510   17.8570    0.7420 C   0  0  0  0  0  0  0  0  0  0  0  0
    7.2110   18.0130    0.3530 O   0  0  0  0  0  0  0  0  0  0  0  0
    9.0190   16.7860    0.7610 O   0  0  0  0  0  0  0  0  0  0  0  0
   14.3800   23.0692    4.5715 H   0  0  0  0  0  0  0  0  0  0  0  0
   15.7536   26.3732    4.4134 H   0  0  0  0  0  0  0  0  0  0  0  0
   12.1335   23.4434    6.5161 H   0  0  0  0  0  0  0  0  0  0  0  0
   10.5701   19.2701   -0.4697 H   0  0  0  0  0  0  0  0  0  0  0  0
   11.1698   18.3990    0.9987 H   0  0  0  0  0  0  0  0  0  0  0  0
   18.2145   25.9164    4.2263 H   0  0  0  0  0  0  0  0  0  0  0  0
   11.8133   19.7620    3.0355 H   0  0  0  0  0  0  0  0  0  0  0  0
   19.9489   22.2251    3.0406 H   0  0  0  0  0  0  0  0  0  0  0  0
   18.9295   22.4094    1.5732 H   0  0  0  0  0  0  0  0  0  0  0  0
   20.6213   23.0132    1.5732 H   0  0  0  0  0  0  0  0  0  0  0  0
   15.8496   21.3968    0.9847 H   0  0  0  0  0  0  0  0  0  0  0  0
   14.5848   21.8464   -0.2090 H   0  0  0  0  0  0  0  0  0  0  0  0
   16.1645   22.7016   -0.2090 H   0  0  0  0  0  0  0  0  0  0  0  0
   10.7972   27.5263    1.5952 H   0  0  0  0  0  0  0  0  0  0  0  0
    8.2717   25.1559    4.1728 H   0  0  0  0  0  0  0  0  0  0  0  0
   10.2602   23.8036    4.9113 H   0  0  0  0  0  0  0  0  0  0  0  0
   13.8489   21.7257    6.9798 H   0  0  0  0  0  0  0  0  0  0  0  0
   15.1402   22.9903    6.8341 H   0  0  0  0  0  0  0  0  0  0  0  0
   12.9139   22.8998    8.9252 H   0  0  0  0  0  0  0  0  0  0  0  0
   14.6721   22.5463    9.1825 H   0  0  0  0  0  0  0  0  0  0  0  0
   15.2733   24.8286    8.6708 H   0  0  0  0  0  0  0  0  0  0  0  0
   13.9595   24.8371    9.9182 H   0  0  0  0  0  0  0  0  0  0  0  0
   13.6581   26.5680    8.0927 H   0  0  0  0  0  0  0  0  0  0  0  0
   12.2897   25.3942    8.2544 H   0  0  0  0  0  0  0  0  0  0  0  0
   14.5211   25.3380    6.1603 H   0  0  0  0  0  0  0  0  0  0  0  0
   12.7662   25.7266    5.9020 H   0  0  0  0  0  0  0  0  0  0  0  0
   12.1084   22.6346    2.5082 H   0  0  0  0  0  0  0  0  0  0  0  0
    9.8697   20.6413    4.2681 H   0  0  0  0  0  0  0  0  0  0  0  0
    9.3056   21.4640    2.7567 H   0  0  0  0  0  0  0  0  0  0  0  0
    8.0786   19.3530    3.0758 H   0  0  0  0  0  0  0  0  0  0  0  0
    9.6477   18.4514    3.1651 H   0  0  0  0  0  0  0  0  0  0  0  0
    8.5434   19.9719    0.7349 H   0  0  0  0  0  0  0  0  0  0  0  0
   12.3252   20.5667    0.7733 H   0  0  0  0  0  0  0  0  0  0  0  0
   10.7271   21.4180    0.7319 H   0  0  0  0  0  0  0  0  0  0  0  0
    9.2446   16.3606    1.6260 H   0  0  0  0  0  0  0  0  0  0  0  0
 38 37  2  0
 18 17  1  0
 12 36  1  0
 12 35  1  0
 37 39  1  0
 37 35  1  0
 36 14  1  0
 35 34  1  0
 17  6  1  0
 19  6  2  0
 19  9  1  0
  6  2  1  0
 15 16  1  0
 21  3  2  0
 21 11  1  0
  1  3  1  0
  1 20  2  0
 22 11  1  0
 14 32  1  0
 14 33  1  0
 16  9  1  0
 34 33  1  0
  3  5  1  0
  9 13  2  0
 11 23  2  0
  2 20  1  0
  2  8  2  0
 20 25  1  0
 32  4  1  0
 13  8  1  0
  5 25  1  0
  5 24  2  0
 23 24  1  0
 25  7  1  0
  4  7  1  0
  4 31  2  0
  7 10  1  0
 10 30  1  0
 10 26  1  0
 30 29  1  0
 26 27  1  0
 29 28  1  0
 27 28  1  0
  7 40  1  0
  8 41  1  0
 10 42  1  0
 12 43  1  0
 12 44  1  0
 13 45  1  0
 14 46  1  0
 15 47  1  0
 15 48  1  0
 15 49  1  0
 18 50  1  0
 18 51  1  0
 18 52  1  0
 21 53  1  0
 23 54  1  0
 24 55  1  0
 26 56  1  0
 26 57  1  0
 27 58  1  0
 27 59  1  0
 28 60  1  0
 28 61  1  0
 29 62  1  0
 29 63  1  0
 30 64  1  0
 30 65  1  0
 32 66  1  0
 33 67  1  0
 33 68  1  0
 34 69  1  0
 34 70  1  0
 35 71  1  0
 36 72  1  0
 36 73  1  0
 39 74  1  0
A    1
N3
A    2
C4
A    3
C5
A    4
C6
A    5
C7
A    6
C8
A    7
C10
A    8
C13
A    9
C15
A   10
C20
A   11
C21
A   12
C22
A   13
C24
A   14
C26
A   15
C36
A   16
O32
A   17
O25
A   18
C35
A   19
N9
A   20
C1
A   21
C14
A   22
F29
A   23
C27
A   24
C16
A   25
N2
A   26
C33
A   27
C38
A   28
C39
A   29
C37
A   30
C34
A   31
O17
A   32
N11
A   33
C30
A   34
C23
A   35
C18
A   36
C31
A   37
C12
A   38
O19
A   39
O28
M  END
