5QC2_BQP_A_901
     RDKit          3D

102107  0  0  0  0  0  0  0  0999 V2000
    8.2260    1.8660   11.6670 N   0  0  0  0  0  0  0  0  0  0  0  0
    7.1040    2.7180   12.0880 C   0  0  0  0  0  0  0  0  0  0  0  0
    8.6660    4.1280   13.3950 C   0  0  0  0  0  0  0  0  0  0  0  0
    9.8170    3.3140   12.8700 C   0  0  0  0  0  0  0  0  0  0  0  0
    9.4300    2.6940   11.5310 C   0  0  0  0  0  0  0  0  0  0  0  0
    7.9190    1.1390   10.4090 C   0  0  0  0  0  0  0  0  0  0  0  0
    8.9650    0.0800   10.0550 C   0  0  0  0  0  0  0  0  0  0  0  0
    5.9870   -1.3170    7.6880 C   0  0  0  0  0  0  0  0  0  0  0  0
    4.7640   -1.9250    7.9440 C   0  0  0  0  0  0  0  0  0  0  0  0
    4.5280   -2.6080    9.1190 C   0  0  0  0  0  0  0  0  0  0  0  0
    5.5220   -2.7010   10.0850 C   0  0  0  0  0  0  0  0  0  0  0  0
    6.7600   -2.0960    9.8520 C   0  0  0  0  0  0  0  0  0  0  0  0
    7.0040   -1.4060    8.6660 C   0  0  0  0  0  0  0  0  0  0  0  0
    7.3770    3.3620   13.4500 C   0  0  0  0  0  0  0  0  0  0  0  0
    6.1710   -0.5940    6.3870 C   0  0  0  0  0  0  0  0  0  0  0  0
    5.3000   -3.4140   11.3570 C   0  0  0  0  0  0  0  0  0  0  0  0
    4.4770   -4.3780   13.1570 C   0  0  0  0  0  0  0  0  0  0  0  0
    4.0920   -3.7290   12.0340 C   0  0  0  0  0  0  0  0  0  0  0  0
    2.6530   -3.4800   11.7170 C   0  0  0  0  0  0  0  0  0  0  0  0
    2.1360   -4.3630   14.0510 C   0  0  0  0  0  0  0  0  0  0  0  0
    3.5560   -4.9150   14.1910 C   0  0  0  0  0  0  0  0  0  0  0  0
    6.7170   -5.0540   14.1590 C   0  0  0  0  0  0  0  0  0  0  0  0
    7.4620   -4.0220   14.9940 C   0  0  0  0  0  0  0  0  0  0  0  0
    6.5530   -3.0910   15.7450 C   0  0  0  0  0  0  0  0  0  0  0  0
    1.0220   -2.3560   13.1300 C   0  0  0  0  0  0  0  0  0  0  0  0
    0.2950   -2.2620   14.4360 C   0  0  0  0  0  0  0  0  0  0  0  0
    1.1070   -1.5650   15.5680 C   0  0  0  0  0  0  0  0  0  0  0  0
    0.6310   -1.9860   16.9440 C   0  0  0  0  0  0  0  0  0  0  0  0
    0.3420   -0.7940   17.8270 C   0  0  0  0  0  0  0  0  0  0  0  0
    1.7630    0.7100   16.6010 C   0  0  0  0  0  0  0  0  0  0  0  0
    1.0650   -0.0230   15.4430 C   0  0  0  0  0  0  0  0  0  0  0  0
    1.3090    1.0600   18.9950 C   0  0  0  0  0  0  0  0  0  0  0  0
    1.6170    2.5010   18.6110 C   0  0  0  0  0  0  0  0  0  0  0  0
    2.4680    3.1830   19.6870 C   0  0  0  0  0  0  0  0  0  0  0  0
    1.8410    4.4800   20.2340 C   0  0  0  0  0  0  0  0  0  0  0  0
    1.4300    5.4400   19.1170 C   0  0  0  0  0  0  0  0  0  0  0  0
    0.6160    4.7300   18.0310 C   0  0  0  0  0  0  0  0  0  0  0  0
    0.3370    3.2920   18.4020 C   0  0  0  0  0  0  0  0  0  0  0  0
    8.4870    5.2510   12.5590 F   0  0  0  0  0  0  0  0  0  0  0  0
    7.3780   -0.7870    5.8580 F   0  0  0  0  0  0  0  0  0  0  0  0
    6.0560    0.7380    6.5160 F   0  0  0  0  0  0  0  0  0  0  0  0
    5.2750   -0.9720    5.4690 F   0  0  0  0  0  0  0  0  0  0  0  0
    6.3650   -3.8480   12.0520 N   0  0  0  0  0  0  0  0  0  0  0  0
    5.8240   -4.4430   13.1570 N   0  0  0  0  0  0  0  0  0  0  0  0
    1.9110   -3.3650   12.9700 N   0  0  0  0  0  0  0  0  0  0  0  0
    1.4980    0.0790   17.9140 N   0  0  0  0  0  0  0  0  0  0  0  0
    5.7990   -3.6910   16.8450 O   0  0  0  0  0  0  0  0  0  0  0  0
    0.8210   -1.5300   12.2540 O   0  0  0  0  0  0  0  0  0  0  0  0
    8.6020   -0.6590    8.4220 S   0  0  0  0  0  0  0  0  0  0  0  0
    6.1939    2.1040   12.1576 H   0  0  0  0  0  0  0  0  0  0  0  0
    6.9767    3.5183   11.3441 H   0  0  0  0  0  0  0  0  0  0  0  0
    8.9175    4.4195   14.4254 H   0  0  0  0  0  0  0  0  0  0  0  0
   10.6940    3.9638   12.7337 H   0  0  0  0  0  0  0  0  0  0  0  0
   10.0605    2.5165   13.5875 H   0  0  0  0  0  0  0  0  0  0  0  0
    9.2350    3.4970   10.8050 H   0  0  0  0  0  0  0  0  0  0  0  0
   10.2578    2.0573   11.1856 H   0  0  0  0  0  0  0  0  0  0  0  0
    6.9434    0.6433   10.5207 H   0  0  0  0  0  0  0  0  0  0  0  0
    7.9151    1.8797    9.5957 H   0  0  0  0  0  0  0  0  0  0  0  0
    9.9596    0.5489   10.0270 H   0  0  0  0  0  0  0  0  0  0  0  0
    8.9405   -0.7127   10.8173 H   0  0  0  0  0  0  0  0  0  0  0  0
    3.9645   -1.8601    7.1913 H   0  0  0  0  0  0  0  0  0  0  0  0
    3.5497   -3.0805    9.2916 H   0  0  0  0  0  0  0  0  0  0  0  0
    7.5509   -2.1652   10.6134 H   0  0  0  0  0  0  0  0  0  0  0  0
    7.4497    2.5777   14.2179 H   0  0  0  0  0  0  0  0  0  0  0  0
    6.5547    4.0481   13.7012 H   0  0  0  0  0  0  0  0  0  0  0  0
    2.2538   -4.3174   11.1259 H   0  0  0  0  0  0  0  0  0  0  0  0
    2.5523   -2.5520   11.1351 H   0  0  0  0  0  0  0  0  0  0  0  0
    1.4644   -5.2139   13.8643 H   0  0  0  0  0  0  0  0  0  0  0  0
    1.9420   -3.8222   14.9890 H   0  0  0  0  0  0  0  0  0  0  0  0
    3.9438   -4.6445   15.1842 H   0  0  0  0  0  0  0  0  0  0  0  0
    3.5058   -6.0062   14.0612 H   0  0  0  0  0  0  0  0  0  0  0  0
    7.4541   -5.6815   13.6365 H   0  0  0  0  0  0  0  0  0  0  0  0
    6.0906   -5.6441   14.8442 H   0  0  0  0  0  0  0  0  0  0  0  0
    8.0966   -3.4238   14.3236 H   0  0  0  0  0  0  0  0  0  0  0  0
    8.0502   -4.5739   15.7419 H   0  0  0  0  0  0  0  0  0  0  0  0
    5.8305   -2.6731   15.0285 H   0  0  0  0  0  0  0  0  0  0  0  0
    7.2095   -2.3388   16.2068 H   0  0  0  0  0  0  0  0  0  0  0  0
    0.0462   -3.2811   14.7668 H   0  0  0  0  0  0  0  0  0  0  0  0
   -0.5968   -1.6429   14.2584 H   0  0  0  0  0  0  0  0  0  0  0  0
    2.1499   -1.8929   15.4466 H   0  0  0  0  0  0  0  0  0  0  0  0
    1.4111   -2.5996   17.4183 H   0  0  0  0  0  0  0  0  0  0  0  0
   -0.3019   -2.5563   16.8234 H   0  0  0  0  0  0  0  0  0  0  0  0
    0.0812   -1.1477   18.8354 H   0  0  0  0  0  0  0  0  0  0  0  0
   -0.4937   -0.2277   17.3901 H   0  0  0  0  0  0  0  0  0  0  0  0
    1.4019    1.7486   16.6296 H   0  0  0  0  0  0  0  0  0  0  0  0
    2.8471    0.6632   16.4207 H   0  0  0  0  0  0  0  0  0  0  0  0
    0.0122    0.2947   15.4151 H   0  0  0  0  0  0  0  0  0  0  0  0
    1.6070    0.2400   14.5226 H   0  0  0  0  0  0  0  0  0  0  0  0
    1.9680    0.7801   19.8301 H   0  0  0  0  0  0  0  0  0  0  0  0
    0.2409    1.0308   19.2562 H   0  0  0  0  0  0  0  0  0  0  0  0
    2.1822    2.4784   17.6676 H   0  0  0  0  0  0  0  0  0  0  0  0
    3.4490    3.4263   19.2530 H   0  0  0  0  0  0  0  0  0  0  0  0
    2.5481    2.4810   20.5301 H   0  0  0  0  0  0  0  0  0  0  0  0
    0.9495    4.2208   20.8240 H   0  0  0  0  0  0  0  0  0  0  0  0
    2.5976    4.9858   20.8519 H   0  0  0  0  0  0  0  0  0  0  0  0
    0.8210    6.2484   19.5478 H   0  0  0  0  0  0  0  0  0  0  0  0
    2.3445    5.8393   18.6542 H   0  0  0  0  0  0  0  0  0  0  0  0
   -0.3402    5.2573   17.8984 H   0  0  0  0  0  0  0  0  0  0  0  0
    1.2000    4.7398   17.0989 H   0  0  0  0  0  0  0  0  0  0  0  0
   -0.2429    2.8225   17.5937 H   0  0  0  0  0  0  0  0  0  0  0  0
   -0.2243    3.2873   19.3480 H   0  0  0  0  0  0  0  0  0  0  0  0
    6.1782   -3.3892   17.7083 H   0  0  0  0  0  0  0  0  0  0  0  0
 35 34  1  0
 35 36  1  0
 34 33  1  0
 36 37  1  0
 32 33  1  0
 32 46  1  0
 29 46  1  0
 29 28  1  0
 33 38  1  0
 38 37  1  0
 46 30  1  0
 28 27  1  0
 24 47  1  0
 24 23  1  0
 30 31  1  0
 27 31  1  0
 27 26  1  0
 23 22  1  0
 22 44  1  0
 21 20  1  0
 21 17  1  0
 26 25  1  0
 20 45  1  0
 44 17  1  0
 44 43  1  0
 17 18  2  0
 25 45  1  0
 25 48  2  0
 45 19  1  0
 43 16  2  0
 14  3  1  0
 14  2  1  0
 18 19  1  0
 18 16  1  0
  3  4  1  0
  3 39  1  0
  4  5  1  0
 16 11  1  0
  2  1  1  0
  1  5  1  0
  1  6  1  0
 11 12  2  0
 11 10  1  0
 12 13  1  0
  6  7  1  0
  7 49  1  0
 10  9  2  0
 13 49  1  0
 13  8  2  0
  9  8  1  0
  8 15  1  0
 15 41  1  0
 15 40  1  0
 15 42  1  0
  2 50  1  0
  2 51  1  0
  3 52  1  0
  4 53  1  0
  4 54  1  0
  5 55  1  0
  5 56  1  0
  6 57  1  0
  6 58  1  0
  7 59  1  0
  7 60  1  0
  9 61  1  0
 10 62  1  0
 12 63  1  0
 14 64  1  0
 14 65  1  0
 19 66  1  0
 19 67  1  0
 20 68  1  0
 20 69  1  0
 21 70  1  0
 21 71  1  0
 22 72  1  0
 22 73  1  0
 23 74  1  0
 23 75  1  0
 24 76  1  0
 24 77  1  0
 26 78  1  0
 26 79  1  0
 27 80  1  0
 28 81  1  0
 28 82  1  0
 29 83  1  0
 29 84  1  0
 30 85  1  0
 30 86  1  0
 31 87  1  0
 31 88  1  0
 32 89  1  0
 32 90  1  0
 33 91  1  0
 34 92  1  0
 34 93  1  0
 35 94  1  0
 35 95  1  0
 36 96  1  0
 36 97  1  0
 37 98  1  0
 37 99  1  0
 38100  1  0
 38101  1  0
 47102  1  0
A    1
N1
A    2
C2
A    3
C4
A    4
C5
A    5
C6
A    6
C15
A    7
C17
A    8
C21
A    9
C22
A   10
C23
A   11
C24
A   12
C25
A   13
C26
A   14
C3
A   15
C33
A   16
C42
A   17
C46
A   18
C47
A   19
C51
A   20
C53
A   21
C54
A   22
C60
A   23
C62
A   24
C64
A   25
C68
A   26
C72
A   27
C75
A   28
C76
A   29
C77
A   30
C79
A   31
C80
A   32
C87
A   33
C90
A   34
C91
A   35
C92
A   36
C93
A   37
C94
A   38
C95
A   39
F13
A   40
F47
A   41
F48
A   42
F49
A   43
N44
A   44
N45
A   45
N54
A   46
N80
A   47
O68
A   48
O72
A   49
S19
M  END
