5QC4_BC7_A_901
     RDKit          3D

 89 93  0  0  0  0  0  0  0  0999 V2000
    8.6560   -6.6430   12.0850 C   0  0  0  0  0  0  0  0  0  0  0  0
    7.8670   -5.4360   14.0980 C   0  0  0  0  0  0  0  0  0  0  0  0
    6.4080   -5.1320   14.4160 C   0  0  0  0  0  0  0  0  0  0  0  0
    5.7940   -4.3170   13.3210 C   0  0  0  0  0  0  0  0  0  0  0  0
    7.8010   -4.3440   11.8760 C   0  0  0  0  0  0  0  0  0  0  0  0
    5.4480   -3.1970   11.4590 C   0  0  0  0  0  0  0  0  0  0  0  0
    3.4990   -3.8880   14.2510 C   0  0  0  0  0  0  0  0  0  0  0  0
    3.4160   -2.5410   14.9550 C   0  0  0  0  0  0  0  0  0  0  0  0
    2.0280   -2.2530   15.4820 C   0  0  0  0  0  0  0  0  0  0  0  0
    2.0310   -1.0350   17.5890 C   0  0  0  0  0  0  0  0  0  0  0  0
    1.6960    1.4600   17.6200 C   0  0  0  0  0  0  0  0  0  0  0  0
    1.3440    0.1210   18.2770 C   0  0  0  0  0  0  0  0  0  0  0  0
    2.9100    1.2690   16.6970 C   0  0  0  0  0  0  0  0  0  0  0  0
    1.8600    2.6170   18.6520 C   0  0  0  0  0  0  0  0  0  0  0  0
    5.5800   -2.5530   10.1430 C   0  0  0  0  0  0  0  0  0  0  0  0
    4.6300   -2.7050    9.1410 C   0  0  0  0  0  0  0  0  0  0  0  0
    4.8000   -2.0870    7.9180 C   0  0  0  0  0  0  0  0  0  0  0  0
    5.9160   -1.3020    7.6570 C   0  0  0  0  0  0  0  0  0  0  0  0
    6.8850   -1.1520    8.6790 C   0  0  0  0  0  0  0  0  0  0  0  0
    6.7020   -1.7790    9.9060 C   0  0  0  0  0  0  0  0  0  0  0  0
    2.6820    0.1720   15.6150 C   0  0  0  0  0  0  0  0  0  0  0  0
    8.2890    0.8480    9.9400 C   0  0  0  0  0  0  0  0  0  0  0  0
    9.4890    1.7780    9.9990 C   0  0  0  0  0  0  0  0  0  0  0  0
    8.6180    2.7330   12.1530 C   0  0  0  0  0  0  0  0  0  0  0  0
    8.8430    4.1920   12.7060 C   0  0  0  0  0  0  0  0  0  0  0  0
   10.0390    4.7580   11.9270 C   0  0  0  0  0  0  0  0  0  0  0  0
   10.6910    3.5750   11.2220 C   0  0  0  0  0  0  0  0  0  0  0  0
    6.0720   -0.6530    6.3070 C   0  0  0  0  0  0  0  0  0  0  0  0
    8.9580   -7.8090   12.9910 C   0  0  0  0  0  0  0  0  0  0  0  0
    2.9890    2.3450   19.6260 C   0  0  0  0  0  0  0  0  0  0  0  0
    0.5650    2.8690   19.4090 C   0  0  0  0  0  0  0  0  0  0  0  0
    6.4130   -3.9550   12.1810 C   0  0  0  0  0  0  0  0  0  0  0  0
    7.2060   -1.0090    5.6940 F   0  0  0  0  0  0  0  0  0  0  0  0
    5.1170   -0.9600    5.4980 F   0  0  0  0  0  0  0  0  0  0  0  0
    6.0890    0.6540    6.3550 F   0  0  0  0  0  0  0  0  0  0  0  0
    4.3000   -3.0990   12.1330 N   0  0  0  0  0  0  0  0  0  0  0  0
    4.5380   -3.8090   13.2770 N   0  0  0  0  0  0  0  0  0  0  0  0
    1.8730   -0.9410   16.1380 N   0  0  0  0  0  0  0  0  0  0  0  0
    8.1360   -5.5230   12.6470 N   0  0  0  0  0  0  0  0  0  0  0  0
    9.5830    2.6280   11.0510 N   0  0  0  0  0  0  0  0  0  0  0  0
    4.4400   -2.4760   15.9610 O   0  0  0  0  0  0  0  0  0  0  0  0
    8.8730   -6.6980   10.8810 O   0  0  0  0  0  0  0  0  0  0  0  0
   10.3340    1.7430    9.1130 O   0  0  0  0  0  0  0  0  0  0  0  0
    2.2040    3.8270   17.9470 O   0  0  0  0  0  0  0  0  0  0  0  0
    8.3390   -0.1800    8.4550 S   0  0  0  0  0  0  0  0  0  0  0  0
    8.1341   -6.3968   14.5622 H   0  0  0  0  0  0  0  0  0  0  0  0
    8.4701   -4.6063   14.4952 H   0  0  0  0  0  0  0  0  0  0  0  0
    6.3523   -4.5707   15.3604 H   0  0  0  0  0  0  0  0  0  0  0  0
    5.8576   -6.0801   14.5066 H   0  0  0  0  0  0  0  0  0  0  0  0
    7.8955   -4.5652   10.8026 H   0  0  0  0  0  0  0  0  0  0  0  0
    8.4847   -3.5220   12.1346 H   0  0  0  0  0  0  0  0  0  0  0  0
    2.5412   -4.1123   13.7587 H   0  0  0  0  0  0  0  0  0  0  0  0
    3.7126   -4.6873   14.9759 H   0  0  0  0  0  0  0  0  0  0  0  0
    3.6027   -1.7363   14.2286 H   0  0  0  0  0  0  0  0  0  0  0  0
    1.3254   -2.2976   14.6368 H   0  0  0  0  0  0  0  0  0  0  0  0
    1.8280   -3.0100   16.2546 H   0  0  0  0  0  0  0  0  0  0  0  0
    1.5883   -1.9788   17.9400 H   0  0  0  0  0  0  0  0  0  0  0  0
    3.1037   -1.0034   17.8307 H   0  0  0  0  0  0  0  0  0  0  0  0
    0.8500    1.7854   16.9968 H   0  0  0  0  0  0  0  0  0  0  0  0
    1.6587    0.1470   19.3307 H   0  0  0  0  0  0  0  0  0  0  0  0
    0.2571   -0.0269   18.1944 H   0  0  0  0  0  0  0  0  0  0  0  0
    3.7761    0.9816   17.3112 H   0  0  0  0  0  0  0  0  0  0  0  0
    3.0784    2.2207   16.1718 H   0  0  0  0  0  0  0  0  0  0  0  0
    3.7372   -3.3212    9.3229 H   0  0  0  0  0  0  0  0  0  0  0  0
    4.0377   -2.2187    7.1360 H   0  0  0  0  0  0  0  0  0  0  0  0
    7.4571   -1.6585   10.6968 H   0  0  0  0  0  0  0  0  0  0  0  0
    3.6579   -0.2174   15.2895 H   0  0  0  0  0  0  0  0  0  0  0  0
    2.1408    0.6259   14.7717 H   0  0  0  0  0  0  0  0  0  0  0  0
    7.3680    1.4493    9.9304 H   0  0  0  0  0  0  0  0  0  0  0  0
    8.3111    0.1910   10.8220 H   0  0  0  0  0  0  0  0  0  0  0  0
    7.5885    2.6063   11.7868 H   0  0  0  0  0  0  0  0  0  0  0  0
    8.7606    1.9584   12.9209 H   0  0  0  0  0  0  0  0  0  0  0  0
    9.0669    4.1627   13.7826 H   0  0  0  0  0  0  0  0  0  0  0  0
    7.9459    4.8153   12.5772 H   0  0  0  0  0  0  0  0  0  0  0  0
   10.7534    5.2306   12.6171 H   0  0  0  0  0  0  0  0  0  0  0  0
    9.7190    5.5251   11.2064 H   0  0  0  0  0  0  0  0  0  0  0  0
   11.4892    3.1392   11.8408 H   0  0  0  0  0  0  0  0  0  0  0  0
   11.1694    3.8523   10.2711 H   0  0  0  0  0  0  0  0  0  0  0  0
    8.8752   -7.4892   14.0402 H   0  0  0  0  0  0  0  0  0  0  0  0
    8.2402   -8.6196   12.7970 H   0  0  0  0  0  0  0  0  0  0  0  0
    9.9791   -8.1692   12.7970 H   0  0  0  0  0  0  0  0  0  0  0  0
    2.6142    2.4353   20.6562 H   0  0  0  0  0  0  0  0  0  0  0  0
    3.3757    1.3280   19.4643 H   0  0  0  0  0  0  0  0  0  0  0  0
    3.7964    3.0743   19.4643 H   0  0  0  0  0  0  0  0  0  0  0  0
    0.7595    2.8312   20.4910 H   0  0  0  0  0  0  0  0  0  0  0  0
    0.1711    3.8607   19.1417 H   0  0  0  0  0  0  0  0  0  0  0  0
   -0.1721    2.0974   19.1417 H   0  0  0  0  0  0  0  0  0  0  0  0
    4.0230   -2.5025   16.8585 H   0  0  0  0  0  0  0  0  0  0  0  0
    2.4075    4.5428   18.5999 H   0  0  0  0  0  0  0  0  0  0  0  0
 34 28  1  0
 33 28  1  0
 28 35  1  0
 28 18  1  0
 18 17  1  0
 18 19  2  0
 17 16  2  0
 45 19  1  0
 45 22  1  0
 19 20  1  0
 43 23  2  0
 16 15  1  0
 22 23  1  0
 20 15  2  0
 23 40  1  0
 15  6  1  0
 42  1  2  0
 40 27  1  0
 40 24  1  0
 27 26  1  0
  6 36  2  0
  6 32  1  0
 26 25  1  0
  5 32  1  0
  5 39  1  0
 24 25  1  0
  1 39  1  0
  1 29  1  0
 36 37  1  0
 32  4  2  0
 39  2  1  0
 37  4  1  0
 37  7  1  0
  4  3  1  0
  2  3  1  0
  7  8  1  0
  8  9  1  0
  8 41  1  0
 21 38  1  0
 21 13  1  0
  9 38  1  0
 38 10  1  0
 13 11  1  0
 11 12  1  0
 11 14  1  0
 44 14  1  0
 10 12  1  0
 14 30  1  0
 14 31  1  0
  2 46  1  0
  2 47  1  0
  3 48  1  0
  3 49  1  0
  5 50  1  0
  5 51  1  0
  7 52  1  0
  7 53  1  0
  8 54  1  0
  9 55  1  0
  9 56  1  0
 10 57  1  0
 10 58  1  0
 11 59  1  0
 12 60  1  0
 12 61  1  0
 13 62  1  0
 13 63  1  0
 16 64  1  0
 17 65  1  0
 20 66  1  0
 21 67  1  0
 21 68  1  0
 22 69  1  0
 22 70  1  0
 24 71  1  0
 24 72  1  0
 25 73  1  0
 25 74  1  0
 26 75  1  0
 26 76  1  0
 27 77  1  0
 27 78  1  0
 29 79  1  0
 29 80  1  0
 29 81  1  0
 30 82  1  0
 30 83  1  0
 30 84  1  0
 31 85  1  0
 31 86  1  0
 31 87  1  0
 41 88  1  0
 44 89  1  0
A    1
C1
A    2
C4
A    3
C5
A    4
C6
A    5
C8
A    6
C9
A    7
C12
A    8
C13
A    9
C15
A   10
C17
A   11
C19
A   12
C18
A   13
C20
A   14
C22
A   15
C23
A   16
C24
A   17
C25
A   18
C26
A   19
C27
A   20
C28
A   21
C21
A   22
C30
A   23
C31
A   24
C34
A   25
C35
A   26
C36
A   27
C37
A   28
C38
A   29
C43
A   30
C44
A   31
C45
A   32
C7
A   33
F39
A   34
F40
A   35
F41
A   36
N10
A   37
N11
A   38
N16
A   39
N3
A   40
N33
A   41
O14
A   42
O2
A   43
O32
A   44
O42
A   45
S29
M  END
