5QC9_BG7_A_901
     RDKit          3D

 85 88  0  0  0  0  0  0  0  0999 V2000
  -10.2970    5.8380   15.1400 C   0  0  0  0  0  0  0  0  0  0  0  0
  -11.1270    4.6000   14.8930 C   0  0  0  0  0  0  0  0  0  0  0  0
  -12.6160    4.8440   15.0600 C   0  0  0  0  0  0  0  0  0  0  0  0
  -12.0020    6.2320   17.0020 C   0  0  0  0  0  0  0  0  0  0  0  0
  -10.5500    6.3330   16.5830 C   0  0  0  0  0  0  0  0  0  0  0  0
   -8.8090    5.5760   14.8950 C   0  0  0  0  0  0  0  0  0  0  0  0
   -8.4900    4.6100   13.7730 C   0  0  0  0  0  0  0  0  0  0  0  0
   -7.2490    3.2070   15.4220 C   0  0  0  0  0  0  0  0  0  0  0  0
   -5.7210    3.2690   15.4650 C   0  0  0  0  0  0  0  0  0  0  0  0
   -5.1730    2.7360   14.1780 C   0  0  0  0  0  0  0  0  0  0  0  0
   -5.9090    2.4070   13.0960 C   0  0  0  0  0  0  0  0  0  0  0  0
   -7.3980    2.5540   13.0690 C   0  0  0  0  0  0  0  0  0  0  0  0
   -4.9720    1.9550   12.1310 C   0  0  0  0  0  0  0  0  0  0  0  0
   -2.7040    2.6790   14.7150 C   0  0  0  0  0  0  0  0  0  0  0  0
   -5.2130    1.4750   10.7580 C   0  0  0  0  0  0  0  0  0  0  0  0
   -6.3090    0.6630   10.5000 C   0  0  0  0  0  0  0  0  0  0  0  0
   -6.5770    0.1950    9.2180 C   0  0  0  0  0  0  0  0  0  0  0  0
   -5.7090    0.5510    8.1660 C   0  0  0  0  0  0  0  0  0  0  0  0
   -4.6200    1.3680    8.4320 C   0  0  0  0  0  0  0  0  0  0  0  0
   -4.3710    1.8270    9.7110 C   0  0  0  0  0  0  0  0  0  0  0  0
   -5.9490    0.0840    6.7560 C   0  0  0  0  0  0  0  0  0  0  0  0
   -7.7730   -0.7010    8.9840 C   0  0  0  0  0  0  0  0  0  0  0  0
   -8.2380   -2.4020   10.6790 C   0  0  0  0  0  0  0  0  0  0  0  0
   -7.8120   -3.6990   11.2320 C   0  0  0  0  0  0  0  0  0  0  0  0
   -8.5810   -4.7400   11.5700 C   0  0  0  0  0  0  0  0  0  0  0  0
   -7.9870   -6.0070   12.1370 C   0  0  0  0  0  0  0  0  0  0  0  0
  -10.0640   -4.7640   11.4230 C   0  0  0  0  0  0  0  0  0  0  0  0
   -2.4950    1.5130   15.6720 C   0  0  0  0  0  0  0  0  0  0  0  0
   -2.4140    0.1690   14.9710 C   0  0  0  0  0  0  0  0  0  0  0  0
   -1.3700   -1.9940   14.9570 C   0  0  0  0  0  0  0  0  0  0  0  0
   -2.8010   -1.3910   16.7640 C   0  0  0  0  0  0  0  0  0  0  0  0
   -5.9630   -1.2060    6.6340 F   0  0  0  0  0  0  0  0  0  0  0  0
   -7.1000    0.5470    6.2710 F   0  0  0  0  0  0  0  0  0  0  0  0
   -5.0200    0.5090    5.9100 F   0  0  0  0  0  0  0  0  0  0  0  0
   -7.7620    3.5240   14.0790 N   0  0  0  0  0  0  0  0  0  0  0  0
   -3.7280    2.0040   12.6090 N   0  0  0  0  0  0  0  0  0  0  0  0
   -3.8790    2.4960   13.8800 N   0  0  0  0  0  0  0  0  0  0  0  0
  -12.8750    6.1180   15.8210 N   0  0  0  0  0  0  0  0  0  0  0  0
   -7.5070   -1.9800    9.6440 N   0  0  0  0  0  0  0  0  0  0  0  0
   -1.8290   -0.8970   15.7940 N   0  0  0  0  0  0  0  0  0  0  0  0
   -8.8790    4.8160   12.6320 O   0  0  0  0  0  0  0  0  0  0  0  0
   -9.1860   -1.7370   11.1240 O   0  0  0  0  0  0  0  0  0  0  0  0
  -10.5995    6.6205   14.4285 H   0  0  0  0  0  0  0  0  0  0  0  0
  -10.8168    3.8215   15.6056 H   0  0  0  0  0  0  0  0  0  0  0  0
  -10.9579    4.2918   13.8507 H   0  0  0  0  0  0  0  0  0  0  0  0
  -13.0815    4.9183   14.0661 H   0  0  0  0  0  0  0  0  0  0  0  0
  -13.0460    4.0050   15.6268 H   0  0  0  0  0  0  0  0  0  0  0  0
  -12.2779    7.1326   17.5701 H   0  0  0  0  0  0  0  0  0  0  0  0
  -12.1298    5.3350   17.6258 H   0  0  0  0  0  0  0  0  0  0  0  0
   -9.9442    5.7263   17.2721 H   0  0  0  0  0  0  0  0  0  0  0  0
  -10.2730    7.3970   16.6171 H   0  0  0  0  0  0  0  0  0  0  0  0
   -8.3797    5.1704   15.8230 H   0  0  0  0  0  0  0  0  0  0  0  0
   -8.3797    6.5421   14.5910 H   0  0  0  0  0  0  0  0  0  0  0  0
   -7.6570    3.9323   16.1413 H   0  0  0  0  0  0  0  0  0  0  0  0
   -7.5613    2.1841   15.6793 H   0  0  0  0  0  0  0  0  0  0  0  0
   -5.3510    2.6602   16.3031 H   0  0  0  0  0  0  0  0  0  0  0  0
   -5.3960    4.3108   15.6031 H   0  0  0  0  0  0  0  0  0  0  0  0
   -7.7220    2.9051   12.0782 H   0  0  0  0  0  0  0  0  0  0  0  0
   -7.8845    1.5879   13.2691 H   0  0  0  0  0  0  0  0  0  0  0  0
   -1.8193    2.7697   14.0676 H   0  0  0  0  0  0  0  0  0  0  0  0
   -2.8533    3.5882   15.3159 H   0  0  0  0  0  0  0  0  0  0  0  0
   -6.9792    0.3840   11.3264 H   0  0  0  0  0  0  0  0  0  0  0  0
   -3.9447    1.6547    7.6124 H   0  0  0  0  0  0  0  0  0  0  0  0
   -3.5020    2.4741    9.9010 H   0  0  0  0  0  0  0  0  0  0  0  0
   -8.6758   -0.2398    9.4109 H   0  0  0  0  0  0  0  0  0  0  0  0
   -7.9375   -0.8504    7.9067 H   0  0  0  0  0  0  0  0  0  0  0  0
   -6.7303   -3.8271   11.3857 H   0  0  0  0  0  0  0  0  0  0  0  0
   -8.0081   -5.9621   13.2359 H   0  0  0  0  0  0  0  0  0  0  0  0
   -8.5733   -6.8723   11.7941 H   0  0  0  0  0  0  0  0  0  0  0  0
   -6.9469   -6.1098   11.7941 H   0  0  0  0  0  0  0  0  0  0  0  0
  -10.5311   -4.7716   12.4189 H   0  0  0  0  0  0  0  0  0  0  0  0
  -10.3922   -3.8710   10.8708 H   0  0  0  0  0  0  0  0  0  0  0  0
  -10.3632   -5.6671   10.8708 H   0  0  0  0  0  0  0  0  0  0  0  0
   -1.5569    1.6769   16.2226 H   0  0  0  0  0  0  0  0  0  0  0  0
   -3.3675    1.4798   16.3411 H   0  0  0  0  0  0  0  0  0  0  0  0
   -3.4318   -0.1339   14.6842 H   0  0  0  0  0  0  0  0  0  0  0  0
   -1.7522    0.3013   14.1024 H   0  0  0  0  0  0  0  0  0  0  0  0
   -1.0239   -2.8213   15.5940 H   0  0  0  0  0  0  0  0  0  0  0  0
   -2.1980   -2.3419   14.3219 H   0  0  0  0  0  0  0  0  0  0  0  0
   -0.5409   -1.6486   14.3219 H   0  0  0  0  0  0  0  0  0  0  0  0
   -2.4307   -1.2028   17.7826 H   0  0  0  0  0  0  0  0  0  0  0  0
   -3.7594   -0.8706   16.6203 H   0  0  0  0  0  0  0  0  0  0  0  0
   -2.9456   -2.4720   16.6203 H   0  0  0  0  0  0  0  0  0  0  0  0
  -12.7016    6.9201   15.1986 H   0  0  0  0  0  0  0  0  0  0  0  0
   -6.7356   -2.5702    9.3012 H   0  0  0  0  0  0  0  0  0  0  0  0
 34 21  1  0
 33 21  1  0
 32 21  1  0
 21 18  1  0
 18 19  2  0
 18 17  1  0
 19 20  1  0
 22 17  1  0
 22 39  1  0
 17 16  2  0
 39 23  1  0
 20 15  2  0
 16 15  1  0
 23 42  2  0
 23 24  1  0
 15 13  1  0
 24 25  2  0
 27 25  1  0
 25 26  1  0
 13 36  2  0
 13 11  1  0
 36 37  1  0
 41  7  2  0
 12 11  1  0
 12 35  1  0
 11 10  2  0
  7 35  1  0
  7  6  1  0
 37 10  1  0
 37 14  1  0
 35  8  1  0
 10  9  1  0
 14 28  1  0
  2  3  1  0
  2  1  1  0
  6  1  1  0
 30 40  1  0
 29 28  1  0
 29 40  1  0
  3 38  1  0
  1  5  1  0
  8  9  1  0
 40 31  1  0
 38  4  1  0
  5  4  1  0
  1 43  1  0
  2 44  1  0
  2 45  1  0
  3 46  1  0
  3 47  1  0
  4 48  1  0
  4 49  1  0
  5 50  1  0
  5 51  1  0
  6 52  1  0
  6 53  1  0
  8 54  1  0
  8 55  1  0
  9 56  1  0
  9 57  1  0
 12 58  1  0
 12 59  1  0
 14 60  1  0
 14 61  1  0
 16 62  1  0
 19 63  1  0
 20 64  1  0
 22 65  1  0
 22 66  1  0
 24 67  1  0
 26 68  1  0
 26 69  1  0
 26 70  1  0
 27 71  1  0
 27 72  1  0
 27 73  1  0
 28 74  1  0
 28 75  1  0
 29 76  1  0
 29 77  1  0
 30 78  1  0
 30 79  1  0
 30 80  1  0
 31 81  1  0
 31 82  1  0
 31 83  1  0
 38 84  1  0
 39 85  1  0
A    1
C1
A    2
C2
A    3
C3
A    4
C5
A    5
C6
A    6
C13
A    7
C15
A    8
C21
A    9
C22
A   10
C23
A   11
C24
A   12
C25
A   13
C32
A   14
C39
A   15
C41
A   16
C43
A   17
C44
A   18
C45
A   19
C46
A   20
C47
A   21
C54
A   22
C62
A   23
C66
A   24
C68
A   25
C70
A   26
C72
A   27
C74
A   28
C78
A   29
C80
A   30
C84
A   31
C86
A   32
F56
A   33
F58
A   34
F60
A   35
N19
A   36
N33
A   37
N34
A   38
N4
A   39
N64
A   40
N82
A   41
O17
A   42
O76
M  END
