5QCB_BHV_A_901
     RDKit          3D

105109  0  0  0  0  0  0  0  0999 V2000
    7.9050   -8.4290   -2.3230 C   0  0  0  0  0  0  0  0  0  0  0  0
    9.2020  -12.0030    0.7040 C   0  0  0  0  0  0  0  0  0  0  0  0
    4.6030   -7.6000   -4.0410 C   0  0  0  0  0  0  0  0  0  0  0  0
    6.4750   -9.6120   -4.0200 C   0  0  0  0  0  0  0  0  0  0  0  0
    4.4270   -8.7040   -4.8400 C   0  0  0  0  0  0  0  0  0  0  0  0
    5.3530   -9.7160   -4.8370 C   0  0  0  0  0  0  0  0  0  0  0  0
    5.7120   -7.4860   -3.2210 C   0  0  0  0  0  0  0  0  0  0  0  0
    5.8520   -6.2630   -2.3840 C   0  0  0  0  0  0  0  0  0  0  0  0
    8.6670  -10.5220   -1.2670 C   0  0  0  0  0  0  0  0  0  0  0  0
    8.3640  -11.4870   -0.2000 C   0  0  0  0  0  0  0  0  0  0  0  0
    6.6750   -8.5030   -3.2110 C   0  0  0  0  0  0  0  0  0  0  0  0
    8.7010  -12.9960    1.7160 C   0  0  0  0  0  0  0  0  0  0  0  0
   10.6820  -11.6700    0.8190 C   0  0  0  0  0  0  0  0  0  0  0  0
    5.1570  -10.8900   -5.7060 C   0  0  0  0  0  0  0  0  0  0  0  0
    6.0790  -11.5470   -6.5650 C   0  0  0  0  0  0  0  0  0  0  0  0
    5.3700  -12.5510   -7.1290 C   0  0  0  0  0  0  0  0  0  0  0  0
    5.9060  -13.5370   -8.1120 C   0  0  0  0  0  0  0  0  0  0  0  0
    7.4220  -13.3820   -8.2370 C   0  0  0  0  0  0  0  0  0  0  0  0
    7.5340  -11.3070   -6.8740 C   0  0  0  0  0  0  0  0  0  0  0  0
    2.9600  -13.3450   -6.9150 C   0  0  0  0  0  0  0  0  0  0  0  0
    2.4500  -14.0560   -5.6300 C   0  0  0  0  0  0  0  0  0  0  0  0
    3.2510  -15.3030   -5.2050 C   0  0  0  0  0  0  0  0  0  0  0  0
    2.7820  -15.1650   -2.7850 C   0  0  0  0  0  0  0  0  0  0  0  0
    2.6090  -16.0130   -1.5390 C   0  0  0  0  0  0  0  0  0  0  0  0
    0.7750  -16.8690   -2.7850 C   0  0  0  0  0  0  0  0  0  0  0  0
    1.3830  -16.5340   -4.1410 C   0  0  0  0  0  0  0  0  0  0  0  0
    8.5510  -11.3540   -9.0770 C   0  0  0  0  0  0  0  0  0  0  0  0
    8.8480  -12.1050  -10.3570 C   0  0  0  0  0  0  0  0  0  0  0  0
   10.2510  -12.7080  -10.5100 C   0  0  0  0  0  0  0  0  0  0  0  0
   10.9140  -12.2720  -11.8170 C   0  0  0  0  0  0  0  0  0  0  0  0
   12.3720  -12.7150  -11.8850 C   0  0  0  0  0  0  0  0  0  0  0  0
   12.4870  -13.1500   -9.4800 C   0  0  0  0  0  0  0  0  0  0  0  0
   11.1630  -12.3910   -9.3560 C   0  0  0  0  0  0  0  0  0  0  0  0
   12.9880  -18.1080  -10.7090 C   0  0  0  0  0  0  0  0  0  0  0  0
   14.9930  -16.6030  -10.6640 C   0  0  0  0  0  0  0  0  0  0  0  0
   12.6970  -15.0330  -11.1470 C   0  0  0  0  0  0  0  0  0  0  0  0
   13.9060  -17.3150   -8.5190 C   0  0  0  0  0  0  0  0  0  0  0  0
   13.6890  -16.9760   -9.9840 C   0  0  0  0  0  0  0  0  0  0  0  0
    5.8890   -6.5260   -1.0720 F   0  0  0  0  0  0  0  0  0  0  0  0
    4.8400   -5.4170   -2.5700 F   0  0  0  0  0  0  0  0  0  0  0  0
    6.9470   -5.5790   -2.7070 F   0  0  0  0  0  0  0  0  0  0  0  0
    7.8070   -9.4920   -1.3270 N   0  0  0  0  0  0  0  0  0  0  0  0
    4.1100  -12.4880   -6.6370 N   0  0  0  0  0  0  0  0  0  0  0  0
    3.9570  -11.4620   -5.7560 N   0  0  0  0  0  0  0  0  0  0  0  0
    7.8690  -11.9940   -8.1160 N   0  0  0  0  0  0  0  0  0  0  0  0
    2.7440  -16.0180   -3.9730 N   0  0  0  0  0  0  0  0  0  0  0  0
   12.6610  -13.7090  -10.8490 N   0  0  0  0  0  0  0  0  0  0  0  0
    9.6170  -10.6390   -2.0620 O   0  0  0  0  0  0  0  0  0  0  0  0
    1.7880  -17.1650   -1.7890 O   0  0  0  0  0  0  0  0  0  0  0  0
    8.8990  -10.1930   -8.9420 O   0  0  0  0  0  0  0  0  0  0  0  0
   12.6290  -15.4690  -12.2710 O   0  0  0  0  0  0  0  0  0  0  0  0
   12.8090  -15.7680  -10.0310 O   0  0  0  0  0  0  0  0  0  0  0  0
    8.8121   -8.5681   -2.9294 H   0  0  0  0  0  0  0  0  0  0  0  0
    7.9618   -7.4474   -1.8299 H   0  0  0  0  0  0  0  0  0  0  0  0
    3.8523   -6.7960   -4.0533 H   0  0  0  0  0  0  0  0  0  0  0  0
    7.2168  -10.4242   -4.0157 H   0  0  0  0  0  0  0  0  0  0  0  0
    3.5391   -8.7766   -5.4853 H   0  0  0  0  0  0  0  0  0  0  0  0
    7.3193  -11.8258   -0.1382 H   0  0  0  0  0  0  0  0  0  0  0  0
    8.8932  -12.6150    2.7298 H   0  0  0  0  0  0  0  0  0  0  0  0
    7.6198  -13.1451    1.5792 H   0  0  0  0  0  0  0  0  0  0  0  0
    9.2235  -13.9543    1.5792 H   0  0  0  0  0  0  0  0  0  0  0  0
   10.9622  -11.6070    1.8808 H   0  0  0  0  0  0  0  0  0  0  0  0
   11.2741  -12.4574    0.3297 H   0  0  0  0  0  0  0  0  0  0  0  0
   10.8798  -10.7049    0.3297 H   0  0  0  0  0  0  0  0  0  0  0  0
    5.4402  -13.3628   -9.0932 H   0  0  0  0  0  0  0  0  0  0  0  0
    5.6753  -14.5547   -7.7640 H   0  0  0  0  0  0  0  0  0  0  0  0
    7.7333  -13.7656   -9.2198 H   0  0  0  0  0  0  0  0  0  0  0  0
    7.8787  -13.9468   -7.4109 H   0  0  0  0  0  0  0  0  0  0  0  0
    8.1555  -11.6987   -6.0553 H   0  0  0  0  0  0  0  0  0  0  0  0
    7.7209  -10.2283   -6.9808 H   0  0  0  0  0  0  0  0  0  0  0  0
    2.1477  -12.7289   -7.3280 H   0  0  0  0  0  0  0  0  0  0  0  0
    3.2729  -14.1171   -7.6334 H   0  0  0  0  0  0  0  0  0  0  0  0
    2.4859  -13.3310   -4.8035 H   0  0  0  0  0  0  0  0  0  0  0  0
    1.4348  -14.4108   -5.8612 H   0  0  0  0  0  0  0  0  0  0  0  0
    3.2340  -16.0171   -6.0415 H   0  0  0  0  0  0  0  0  0  0  0  0
    4.2576  -14.9406   -4.9491 H   0  0  0  0  0  0  0  0  0  0  0  0
    3.7494  -14.6434   -2.7405 H   0  0  0  0  0  0  0  0  0  0  0  0
    1.9666  -14.4287   -2.8398 H   0  0  0  0  0  0  0  0  0  0  0  0
    3.5989  -16.3486   -1.1961 H   0  0  0  0  0  0  0  0  0  0  0  0
    2.1132  -15.3988   -0.7729 H   0  0  0  0  0  0  0  0  0  0  0  0
    0.1804  -16.0098   -2.4412 H   0  0  0  0  0  0  0  0  0  0  0  0
    0.1491  -17.7653   -2.9073 H   0  0  0  0  0  0  0  0  0  0  0  0
    0.7646  -15.7721   -4.6380 H   0  0  0  0  0  0  0  0  0  0  0  0
    1.4189  -17.4472   -4.7532 H   0  0  0  0  0  0  0  0  0  0  0  0
    8.6957  -11.4064  -11.1929 H   0  0  0  0  0  0  0  0  0  0  0  0
    8.1690  -12.9703  -10.3407 H   0  0  0  0  0  0  0  0  0  0  0  0
   10.0971  -13.7971  -10.5245 H   0  0  0  0  0  0  0  0  0  0  0  0
   10.8708  -11.1753  -11.8901 H   0  0  0  0  0  0  0  0  0  0  0  0
   10.3729  -12.7441  -12.6502 H   0  0  0  0  0  0  0  0  0  0  0  0
   12.5695  -13.1559  -12.8732 H   0  0  0  0  0  0  0  0  0  0  0  0
   13.0156  -11.8379  -11.7222 H   0  0  0  0  0  0  0  0  0  0  0  0
   12.4976  -13.9744   -8.7518 H   0  0  0  0  0  0  0  0  0  0  0  0
   13.3107  -12.4480   -9.2831 H   0  0  0  0  0  0  0  0  0  0  0  0
   11.3673  -11.3102   -9.3451 H   0  0  0  0  0  0  0  0  0  0  0  0
   10.6682  -12.6985   -8.4229 H   0  0  0  0  0  0  0  0  0  0  0  0
   12.5574  -18.8034   -9.9735 H   0  0  0  0  0  0  0  0  0  0  0  0
   12.1854  -17.6981  -11.3398 H   0  0  0  0  0  0  0  0  0  0  0  0
   13.7126  -18.6438  -11.3398 H   0  0  0  0  0  0  0  0  0  0  0  0
   15.7550  -16.3850   -9.9012 H   0  0  0  0  0  0  0  0  0  0  0  0
   15.3317  -17.4403  -11.2919 H   0  0  0  0  0  0  0  0  0  0  0  0
   14.8377  -15.7133  -11.2919 H   0  0  0  0  0  0  0  0  0  0  0  0
   13.4192  -16.5546   -7.8907 H   0  0  0  0  0  0  0  0  0  0  0  0
   13.4715  -18.3022   -8.3028 H   0  0  0  0  0  0  0  0  0  0  0  0
   14.9844  -17.3337   -8.3028 H   0  0  0  0  0  0  0  0  0  0  0  0
    7.0425   -9.4501   -0.6380 H   0  0  0  0  0  0  0  0  0  0  0  0
 51 36  2  0
 31 30  1  0
 31 47  1  0
 30 29  1  0
 36 47  1  0
 36 52  1  0
 47 32  1  0
 34 38  1  0
 35 38  1  0
 29 28  1  0
 29 33  1  0
 28 27  1  0
 52 38  1  0
 38 37  1  0
 32 33  1  0
 27 50  2  0
 27 45  1  0
 18 45  1  0
 18 17  1  0
 45 19  1  0
 17 16  1  0
 16 43  1  0
 16 15  2  0
 20 43  1  0
 20 21  1  0
 19 15  1  0
 43 44  1  0
 15 14  1  0
 44 14  2  0
 14  6  1  0
 21 22  1  0
 22 46  1  0
  5  6  1  0
  5  3  2  0
  6  4  2  0
 26 46  1  0
 26 25  1  0
  3  7  1  0
  4 11  1  0
 46 23  1  0
  7 11  2  0
  7  8  1  0
 11  1  1  0
 23 24  1  0
 25 49  1  0
 41  8  1  0
 40  8  1  0
  8 39  1  0
  1 42  1  0
 48  9  2  0
 49 24  1  0
 42  9  1  0
  9 10  1  0
 10  2  2  0
  2 13  1  0
  2 12  1  0
  1 53  1  0
  1 54  1  0
  3 55  1  0
  4 56  1  0
  5 57  1  0
 10 58  1  0
 12 59  1  0
 12 60  1  0
 12 61  1  0
 13 62  1  0
 13 63  1  0
 13 64  1  0
 17 65  1  0
 17 66  1  0
 18 67  1  0
 18 68  1  0
 19 69  1  0
 19 70  1  0
 20 71  1  0
 20 72  1  0
 21 73  1  0
 21 74  1  0
 22 75  1  0
 22 76  1  0
 23 77  1  0
 23 78  1  0
 24 79  1  0
 24 80  1  0
 25 81  1  0
 25 82  1  0
 26 83  1  0
 26 84  1  0
 28 85  1  0
 28 86  1  0
 29 87  1  0
 30 88  1  0
 30 89  1  0
 31 90  1  0
 31 91  1  0
 32 92  1  0
 32 93  1  0
 33 94  1  0
 33 95  1  0
 34 96  1  0
 34 97  1  0
 34 98  1  0
 35 99  1  0
 35100  1  0
 35101  1  0
 37102  1  0
 37103  1  0
 37104  1  0
 42105  1  0
A    1
C21
A    2
C31
A    3
C5
A    4
C2
A    5
C6
A    6
C1
A    7
C4
A    8
C13
A    9
C25
A   10
C29
A   11
C3
A   12
C33
A   13
C35
A   14
C37
A   15
C39
A   16
C40
A   17
C48
A   18
C49
A   19
C51
A   20
C57
A   21
C59
A   22
C61
A   23
C65
A   24
C66
A   25
C68
A   26
C69
A   27
C76
A   28
C80
A   29
C82
A   30
C84
A   31
C85
A   32
C87
A   33
C88
A   34
C93
A   35
C94
A   36
C95
A   37
C96
A   38
C98
A   39
F15
A   40
F17
A   41
F19
A   42
N23
A   43
N41
A   44
N42
A   45
N50
A   46
N63
A   47
N86
A   48
O27
A   49
O67
A   50
O78
A   51
O97
A   52
O99
M  END
