5QCD_BHJ_A_901
     RDKit          3D

 94100  0  0  0  0  0  0  0  0999 V2000
   38.2070   -3.7630  -29.6190 C   0  0  0  0  0  0  0  0  0  0  0  0
   37.9580   -3.5190  -31.0960 C   0  0  0  0  0  0  0  0  0  0  0  0
   39.8220   -4.5930  -27.9620 C   0  0  0  0  0  0  0  0  0  0  0  0
   37.5260   -5.7910  -24.3020 C   0  0  0  0  0  0  0  0  0  0  0  0
   39.5000   -5.1650  -31.6820 C   0  0  0  0  0  0  0  0  0  0  0  0
   39.7980   -5.4660  -30.2290 C   0  0  0  0  0  0  0  0  0  0  0  0
   38.5190   -6.7940  -24.3240 C   0  0  0  0  0  0  0  0  0  0  0  0
   40.8280   -8.3340  -24.7370 C   0  0  0  0  0  0  0  0  0  0  0  0
   39.7820   -3.4120  -27.0110 C   0  0  0  0  0  0  0  0  0  0  0  0
   40.1610   -3.7990  -25.5900 C   0  0  0  0  0  0  0  0  0  0  0  0
   39.6360   -6.1810  -24.8060 C   0  0  0  0  0  0  0  0  0  0  0  0
   40.9640   -6.8410  -25.0120 C   0  0  0  0  0  0  0  0  0  0  0  0
   38.5010   -8.1950  -23.9410 C   0  0  0  0  0  0  0  0  0  0  0  0
   36.1150   -5.8590  -23.8780 C   0  0  0  0  0  0  0  0  0  0  0  0
   35.2850   -6.8930  -24.3180 C   0  0  0  0  0  0  0  0  0  0  0  0
   33.9480   -6.9560  -23.9200 C   0  0  0  0  0  0  0  0  0  0  0  0
   33.4660   -5.9570  -23.0740 C   0  0  0  0  0  0  0  0  0  0  0  0
   34.2790   -4.9300  -22.6350 C   0  0  0  0  0  0  0  0  0  0  0  0
   35.5960   -4.8810  -23.0360 C   0  0  0  0  0  0  0  0  0  0  0  0
   39.7640  -11.2400  -23.3620 C   0  0  0  0  0  0  0  0  0  0  0  0
   33.1120   -8.0270  -24.3760 C   0  0  0  0  0  0  0  0  0  0  0  0
   32.3330   -8.8630  -24.7250 C   0  0  0  0  0  0  0  0  0  0  0  0
   31.3420   -9.7980  -25.1540 C   0  0  0  0  0  0  0  0  0  0  0  0
   31.6900  -11.0190  -25.6020 C   0  0  0  0  0  0  0  0  0  0  0  0
   30.7190  -11.9590  -26.0180 C   0  0  0  0  0  0  0  0  0  0  0  0
   29.4060  -11.5020  -25.9280 C   0  0  0  0  0  0  0  0  0  0  0  0
   29.0160  -10.2470  -25.4700 C   0  0  0  0  0  0  0  0  0  0  0  0
   29.9630   -9.4050  -25.0890 C   0  0  0  0  0  0  0  0  0  0  0  0
   28.2260  -12.3930  -26.3390 C   0  0  0  0  0  0  0  0  0  0  0  0
   28.7090  -13.8570  -26.4460 C   0  0  0  0  0  0  0  0  0  0  0  0
   31.1260  -13.3070  -26.5100 C   0  0  0  0  0  0  0  0  0  0  0  0
   27.7170  -14.6220  -27.3340 C   0  0  0  0  0  0  0  0  0  0  0  0
   25.5910  -15.8430  -27.5790 C   0  0  0  0  0  0  0  0  0  0  0  0
   24.8310  -16.8960  -26.7480 C   0  0  0  0  0  0  0  0  0  0  0  0
   24.1180  -16.2670  -25.5350 C   0  0  0  0  0  0  0  0  0  0  0  0
   24.7370  -14.9460  -25.1540 C   0  0  0  0  0  0  0  0  0  0  0  0
   26.2320  -14.9650  -25.3560 C   0  0  0  0  0  0  0  0  0  0  0  0
   39.3150   -4.8930  -25.0580 N   0  0  0  0  0  0  0  0  0  0  0  0
   38.0090   -4.6260  -24.7510 N   0  0  0  0  0  0  0  0  0  0  0  0
   39.5780   -4.2680  -29.4000 N   0  0  0  0  0  0  0  0  0  0  0  0
   39.8940   -8.5450  -23.6140 N   0  0  0  0  0  0  0  0  0  0  0  0
   29.9700  -13.9330  -27.2000 N   0  0  0  0  0  0  0  0  0  0  0  0
   26.5870  -15.1030  -26.7750 N   0  0  0  0  0  0  0  0  0  0  0  0
   39.4440   -9.5480  -21.4360 O   0  0  0  0  0  0  0  0  0  0  0  0
   41.6710   -9.7580  -22.4440 O   0  0  0  0  0  0  0  0  0  0  0  0
   38.1630   -4.6950  -31.8610 O   0  0  0  0  0  0  0  0  0  0  0  0
   27.9580  -14.7750  -28.5160 O   0  0  0  0  0  0  0  0  0  0  0  0
   40.2540   -9.7500  -22.5940 S   0  0  0  0  0  0  0  0  0  0  0  0
   31.8170   -5.9970  -22.5620 Cl  0  0  0  0  0  0  0  0  0  0  0  0
   38.0773   -2.8189  -29.0696 H   0  0  0  0  0  0  0  0  0  0  0  0
   37.4899   -4.5148  -29.2576 H   0  0  0  0  0  0  0  0  0  0  0  0
   38.6472   -2.7382  -31.4500 H   0  0  0  0  0  0  0  0  0  0  0  0
   36.9112   -3.2052  -31.2212 H   0  0  0  0  0  0  0  0  0  0  0  0
   39.0539   -5.3124  -27.6418 H   0  0  0  0  0  0  0  0  0  0  0  0
   40.8473   -4.9880  -27.9109 H   0  0  0  0  0  0  0  0  0  0  0  0
   39.6369   -6.0835  -32.2716 H   0  0  0  0  0  0  0  0  0  0  0  0
   40.1887   -4.3753  -32.0167 H   0  0  0  0  0  0  0  0  0  0  0  0
   39.1353   -6.2728  -29.8828 H   0  0  0  0  0  0  0  0  0  0  0  0
   40.8498   -5.7748  -30.1373 H   0  0  0  0  0  0  0  0  0  0  0  0
   40.4415   -8.8384  -25.6349 H   0  0  0  0  0  0  0  0  0  0  0  0
   41.8127   -8.7499  -24.4776 H   0  0  0  0  0  0  0  0  0  0  0  0
   40.4865   -2.6465  -27.3685 H   0  0  0  0  0  0  0  0  0  0  0  0
   38.7499   -3.0321  -26.9912 H   0  0  0  0  0  0  0  0  0  0  0  0
   41.2106   -4.1280  -25.5815 H   0  0  0  0  0  0  0  0  0  0  0  0
   40.0100   -2.9169  -24.9505 H   0  0  0  0  0  0  0  0  0  0  0  0
   41.2950   -6.6864  -26.0496 H   0  0  0  0  0  0  0  0  0  0  0  0
   41.7048   -6.4042  -24.3261 H   0  0  0  0  0  0  0  0  0  0  0  0
   37.8538   -8.3431  -23.0639 H   0  0  0  0  0  0  0  0  0  0  0  0
   38.1057   -8.8283  -24.7489 H   0  0  0  0  0  0  0  0  0  0  0  0
   35.6898   -7.6673  -24.9864 H   0  0  0  0  0  0  0  0  0  0  0  0
   33.8761   -4.1540  -21.9675 H   0  0  0  0  0  0  0  0  0  0  0  0
   36.2423   -4.0620  -22.6876 H   0  0  0  0  0  0  0  0  0  0  0  0
   39.5187  -11.9861  -22.5918 H   0  0  0  0  0  0  0  0  0  0  0  0
   38.8792  -11.0556  -23.9890 H   0  0  0  0  0  0  0  0  0  0  0  0
   40.5856  -11.6168  -23.9890 H   0  0  0  0  0  0  0  0  0  0  0  0
   32.7548  -11.2918  -25.6454 H   0  0  0  0  0  0  0  0  0  0  0  0
   27.9540   -9.9639  -25.4261 H   0  0  0  0  0  0  0  0  0  0  0  0
   29.6934   -8.4036  -24.7224 H   0  0  0  0  0  0  0  0  0  0  0  0
   27.8365  -12.0618  -27.3130 H   0  0  0  0  0  0  0  0  0  0  0  0
   27.4280  -12.3209  -25.5854 H   0  0  0  0  0  0  0  0  0  0  0  0
   28.8104  -14.2542  -25.4252 H   0  0  0  0  0  0  0  0  0  0  0  0
   31.4329  -13.9338  -25.6598 H   0  0  0  0  0  0  0  0  0  0  0  0
   31.9709  -13.2110  -27.2078 H   0  0  0  0  0  0  0  0  0  0  0  0
   24.8651  -15.1258  -27.9897 H   0  0  0  0  0  0  0  0  0  0  0  0
   26.1309  -16.3719  -28.3782 H   0  0  0  0  0  0  0  0  0  0  0  0
   24.0803  -17.3808  -27.3894 H   0  0  0  0  0  0  0  0  0  0  0  0
   25.5629  -17.6260  -26.3719 H   0  0  0  0  0  0  0  0  0  0  0  0
   23.0593  -16.1063  -25.7865 H   0  0  0  0  0  0  0  0  0  0  0  0
   24.2179  -16.9538  -24.6816 H   0  0  0  0  0  0  0  0  0  0  0  0
   24.3008  -14.1522  -25.7781 H   0  0  0  0  0  0  0  0  0  0  0  0
   24.5319  -14.7596  -24.0895 H   0  0  0  0  0  0  0  0  0  0  0  0
   26.6563  -15.8129  -24.7983 H   0  0  0  0  0  0  0  0  0  0  0  0
   26.6393  -14.0102  -24.9919 H   0  0  0  0  0  0  0  0  0  0  0  0
   29.8360  -13.4572  -28.1037 H   0  0  0  0  0  0  0  0  0  0  0  0
 46  5  1  0
 46  2  1  0
  5  6  1  0
  2  1  1  0
  6 40  1  0
  1 40  1  0
 40  3  1  0
 47 32  2  0
  3  9  1  0
 33 43  1  0
 33 34  1  0
 32 43  1  0
 32 30  1  0
 42 31  1  0
 42 30  1  0
  9 10  1  0
 43 37  1  0
 34 35  1  0
 31 25  1  0
 30 29  1  0
 29 26  1  0
 25 26  1  0
 25 24  2  0
 26 27  2  0
 10 38  1  0
 35 36  1  0
 24 23  1  0
 27 28  1  0
 37 36  1  0
 23 28  2  0
 23 22  1  0
 38 11  1  0
 38 39  1  0
 12 11  1  0
 12  8  1  0
 11  7  2  0
 39  4  2  0
  8 41  1  0
 22 21  3  0
 21 16  1  0
 15 16  2  0
 15 14  1  0
  7  4  1  0
  7 13  1  0
  4 14  1  0
 13 41  1  0
 16 17  1  0
 14 19  2  0
 41 48  1  0
 20 48  1  0
 17 18  2  0
 17 49  1  0
 19 18  1  0
 48 45  2  0
 48 44  2  0
  1 50  1  0
  1 51  1  0
  2 52  1  0
  2 53  1  0
  3 54  1  0
  3 55  1  0
  5 56  1  0
  5 57  1  0
  6 58  1  0
  6 59  1  0
  8 60  1  0
  8 61  1  0
  9 62  1  0
  9 63  1  0
 10 64  1  0
 10 65  1  0
 12 66  1  0
 12 67  1  0
 13 68  1  0
 13 69  1  0
 15 70  1  0
 18 71  1  0
 19 72  1  0
 20 73  1  0
 20 74  1  0
 20 75  1  0
 24 76  1  0
 27 77  1  0
 28 78  1  0
 29 79  1  0
 29 80  1  0
 30 81  1  0
 31 82  1  0
 31 83  1  0
 33 84  1  0
 33 85  1  0
 34 86  1  0
 34 87  1  0
 35 88  1  0
 35 89  1  0
 36 90  1  0
 36 91  1  0
 37 92  1  0
 37 93  1  0
 42 94  1  0
A    1
C4
A    2
C5
A    3
C13
A    4
C22
A    5
C1
A    6
C2
A    7
C23
A    8
C31
A    9
C15
A   10
C17
A   11
C24
A   12
C30
A   13
C33
A   14
C39
A   15
C41
A   16
C42
A   17
C43
A   18
C44
A   19
C45
A   20
C58
A   21
C62
A   22
C64
A   23
C66
A   24
C68
A   25
C69
A   26
C70
A   27
C71
A   28
C72
A   29
C79
A   30
C80
A   31
C82
A   32
C88
A   33
C94
A   34
C95
A   35
C96
A   36
C97
A   37
C98
A   38
N19
A   39
N21
A   40
N3
A   41
N32
A   42
N81
A   43
N92
A   44
O54
A   45
O56
A   46
O6
A   47
O90
A   48
S52
A   49
CL6
M  END
