5QCH_BJS_A_802
     RDKit          3D

 89 94  0  0  0  0  0  0  0  0999 V2000
   -9.2420    0.3540   12.3400 C   0  0  0  0  0  0  0  0  0  0  0  0
   -6.9870    0.8720   13.4870 C   0  0  0  0  0  0  0  0  0  0  0  0
   -8.3760    0.2330   13.5910 C   0  0  0  0  0  0  0  0  0  0  0  0
   -7.3820    6.1380   13.3090 N   0  0  0  0  0  0  0  0  0  0  0  0
   -5.9230    8.0470   12.5980 C   0  0  0  0  0  0  0  0  0  0  0  0
   -6.7090    7.2530   13.6810 C   0  0  0  0  0  0  0  0  0  0  0  0
   -7.0960    4.1480   11.9120 C   0  0  0  0  0  0  0  0  0  0  0  0
   -7.2450    3.3810   13.0210 C   0  0  0  0  0  0  0  0  0  0  0  0
   -7.3290    5.6380   11.9130 C   0  0  0  0  0  0  0  0  0  0  0  0
   -8.2090    5.3210   14.2350 C   0  0  0  0  0  0  0  0  0  0  0  0
   -7.6540    3.8950   14.3780 C   0  0  0  0  0  0  0  0  0  0  0  0
   -6.7030    3.2460   10.8850 C   0  0  0  0  0  0  0  0  0  0  0  0
  -10.3150   -1.7690   11.7360 C   0  0  0  0  0  0  0  0  0  0  0  0
  -11.5450   -2.2330   10.9930 C   0  0  0  0  0  0  0  0  0  0  0  0
  -12.6410   -1.3570   12.9230 C   0  0  0  0  0  0  0  0  0  0  0  0
  -11.5880   -0.3120   13.2910 C   0  0  0  0  0  0  0  0  0  0  0  0
  -12.2160    1.0970   13.4030 C   0  0  0  0  0  0  0  0  0  0  0  0
   -6.4200    3.5170    9.4660 C   0  0  0  0  0  0  0  0  0  0  0  0
   -7.1640    4.5180    8.8270 C   0  0  0  0  0  0  0  0  0  0  0  0
   -6.9520    4.8270    7.4870 C   0  0  0  0  0  0  0  0  0  0  0  0
   -5.9690    4.1120    6.7790 C   0  0  0  0  0  0  0  0  0  0  0  0
   -5.2220    3.1150    7.3970 C   0  0  0  0  0  0  0  0  0  0  0  0
   -5.4490    2.8160    8.7400 C   0  0  0  0  0  0  0  0  0  0  0  0
   -7.7420    5.8620    6.8920 C   0  0  0  0  0  0  0  0  0  0  0  0
   -8.4660    6.7430    6.5300 C   0  0  0  0  0  0  0  0  0  0  0  0
   -9.3500    7.8110    6.1600 C   0  0  0  0  0  0  0  0  0  0  0  0
   -9.8900    8.6580    7.1320 C   0  0  0  0  0  0  0  0  0  0  0  0
  -10.7280    9.6930    6.7540 C   0  0  0  0  0  0  0  0  0  0  0  0
  -11.0220    9.8810    5.4090 C   0  0  0  0  0  0  0  0  0  0  0  0
  -10.5010    9.0500    4.4130 C   0  0  0  0  0  0  0  0  0  0  0  0
   -9.6560    8.0120    4.8150 C   0  0  0  0  0  0  0  0  0  0  0  0
  -10.8190    9.2680    2.9590 C   0  0  0  0  0  0  0  0  0  0  0  0
   -9.6550   11.2780    2.2240 C   0  0  0  0  0  0  0  0  0  0  0  0
   -8.4010   11.8370    1.5910 C   0  0  0  0  0  0  0  0  0  0  0  0
   -7.4600   12.5140    2.3620 C   0  0  0  0  0  0  0  0  0  0  0  0
   -6.3020   13.0230    1.7840 C   0  0  0  0  0  0  0  0  0  0  0  0
   -6.0700   12.8620    0.4250 C   0  0  0  0  0  0  0  0  0  0  0  0
   -7.0000   12.1860   -0.3560 C   0  0  0  0  0  0  0  0  0  0  0  0
   -8.1610   11.6800    0.2260 C   0  0  0  0  0  0  0  0  0  0  0  0
   -6.9720    2.0990   12.6660 N   0  0  0  0  0  0  0  0  0  0  0  0
   -6.6340    1.9980   11.3410 N   0  0  0  0  0  0  0  0  0  0  0  0
   -6.7090    8.8760   11.7870 N   0  0  0  0  0  0  0  0  0  0  0  0
  -10.5240   -0.3870   12.2480 N   0  0  0  0  0  0  0  0  0  0  0  0
   -9.6640    9.8150    2.2370 N   0  0  0  0  0  0  0  0  0  0  0  0
   -6.6800    7.6650   14.8430 O   0  0  0  0  0  0  0  0  0  0  0  0
   -4.6940    7.9380   12.4680 O   0  0  0  0  0  0  0  0  0  0  0  0
  -12.7490   -1.6130   11.4980 O   0  0  0  0  0  0  0  0  0  0  0  0
  -12.0860   11.1950    4.9700 Cl  0  0  0  0  0  0  0  0  0  0  0  0
   -5.6730    4.4690    5.1080 Cl  0  0  0  0  0  0  0  0  0  0  0  0
   -8.6232    0.0234   11.4928 H   0  0  0  0  0  0  0  0  0  0  0  0
   -9.5603    1.4068   12.3550 H   0  0  0  0  0  0  0  0  0  0  0  0
   -6.2988    0.1415   13.0368 H   0  0  0  0  0  0  0  0  0  0  0  0
   -6.6802    1.1555   14.5046 H   0  0  0  0  0  0  0  0  0  0  0  0
   -8.9107    0.7145   14.4230 H   0  0  0  0  0  0  0  0  0  0  0  0
   -8.2065   -0.8433   13.7421 H   0  0  0  0  0  0  0  0  0  0  0  0
   -6.5074    6.1364   11.3777 H   0  0  0  0  0  0  0  0  0  0  0  0
   -8.2840    5.8564   11.4127 H   0  0  0  0  0  0  0  0  0  0  0  0
   -8.2181    5.8017   15.2244 H   0  0  0  0  0  0  0  0  0  0  0  0
   -9.2263    5.2552   13.8217 H   0  0  0  0  0  0  0  0  0  0  0  0
   -8.4297    3.2395   14.8007 H   0  0  0  0  0  0  0  0  0  0  0  0
   -6.7807    3.9049   15.0468 H   0  0  0  0  0  0  0  0  0  0  0  0
  -10.1224   -2.4460   12.5814 H   0  0  0  0  0  0  0  0  0  0  0  0
   -9.4542   -1.7753   11.0512 H   0  0  0  0  0  0  0  0  0  0  0  0
  -11.4340   -1.9784    9.9286 H   0  0  0  0  0  0  0  0  0  0  0  0
  -11.6375   -3.3199   11.1347 H   0  0  0  0  0  0  0  0  0  0  0  0
  -13.6181   -1.0055   13.2859 H   0  0  0  0  0  0  0  0  0  0  0  0
  -12.3283   -2.3015   13.3923 H   0  0  0  0  0  0  0  0  0  0  0  0
  -11.1525   -0.5140   14.2807 H   0  0  0  0  0  0  0  0  0  0  0  0
  -12.3343    1.3624   14.4639 H   0  0  0  0  0  0  0  0  0  0  0  0
  -11.5598    1.8310   12.9124 H   0  0  0  0  0  0  0  0  0  0  0  0
  -13.2005    1.0997   12.9124 H   0  0  0  0  0  0  0  0  0  0  0  0
   -7.9286    5.0688    9.3944 H   0  0  0  0  0  0  0  0  0  0  0  0
   -4.4564    2.5654    6.8297 H   0  0  0  0  0  0  0  0  0  0  0  0
   -4.8626    2.0257    9.2315 H   0  0  0  0  0  0  0  0  0  0  0  0
   -9.6498    8.5026    8.1941 H   0  0  0  0  0  0  0  0  0  0  0  0
  -11.1584   10.3623    7.5135 H   0  0  0  0  0  0  0  0  0  0  0  0
   -9.2248    7.3418    4.0567 H   0  0  0  0  0  0  0  0  0  0  0  0
  -11.6593    9.9732    2.8777 H   0  0  0  0  0  0  0  0  0  0  0  0
  -11.0807    8.2979    2.5114 H   0  0  0  0  0  0  0  0  0  0  0  0
   -9.7209   11.6416    3.2601 H   0  0  0  0  0  0  0  0  0  0  0  0
  -10.5140   11.6151    1.6253 H   0  0  0  0  0  0  0  0  0  0  0  0
   -7.6343   12.6477    3.4398 H   0  0  0  0  0  0  0  0  0  0  0  0
   -5.5673   13.5551    2.4061 H   0  0  0  0  0  0  0  0  0  0  0  0
   -5.1549   13.2673   -0.0315 H   0  0  0  0  0  0  0  0  0  0  0  0
   -6.8199   12.0504   -1.4327 H   0  0  0  0  0  0  0  0  0  0  0  0
   -8.8962   11.1509   -0.3981 H   0  0  0  0  0  0  0  0  0  0  0  0
   -7.3532    9.5555   12.2162 H   0  0  0  0  0  0  0  0  0  0  0  0
   -6.6427    8.8060   10.7615 H   0  0  0  0  0  0  0  0  0  0  0  0
   -9.6910    9.4759    1.2648 H   0  0  0  0  0  0  0  0  0  0  0  0
 36 35  2  0
 36 37  1  0
 35 34  1  0
 37 38  2  0
 34 33  1  0
 34 39  2  0
 38 39  1  0
 44 33  1  0
 44 32  1  0
 32 30  1  0
 30 31  2  0
 30 29  1  0
 31 26  1  0
 48 29  1  0
 49 21  1  0
 29 28  2  0
 26 25  1  0
 26 27  2  0
 25 24  3  0
 28 27  1  0
 21 22  2  0
 21 20  1  0
 24 20  1  0
 22 23  1  0
 20 19  2  0
 23 18  2  0
 19 18  1  0
 18 12  1  0
 14 13  1  0
 14 47  1  0
 12 41  2  0
 12  7  1  0
 13 43  1  0
 41 40  1  0
 42  5  1  0
 47 15  1  0
  9  7  1  0
  9  4  1  0
  7  8  2  0
 43  1  1  0
 43 16  1  0
  1  3  1  0
 40  8  1  0
 40  2  1  0
  5 46  2  0
  5  6  1  0
 15 16  1  0
  8 11  1  0
 16 17  1  0
  3  2  1  0
  4  6  1  0
  4 10  1  0
  6 45  2  0
 10 11  1  0
  1 50  1  0
  1 51  1  0
  2 52  1  0
  2 53  1  0
  3 54  1  0
  3 55  1  0
  9 56  1  0
  9 57  1  0
 10 58  1  0
 10 59  1  0
 11 60  1  0
 11 61  1  0
 13 62  1  0
 13 63  1  0
 14 64  1  0
 14 65  1  0
 15 66  1  0
 15 67  1  0
 16 68  1  0
 17 69  1  0
 17 70  1  0
 17 71  1  0
 19 72  1  0
 22 73  1  0
 23 74  1  0
 27 75  1  0
 28 76  1  0
 31 77  1  0
 32 78  1  0
 32 79  1  0
 33 80  1  0
 33 81  1  0
 35 82  1  0
 36 83  1  0
 37 84  1  0
 38 85  1  0
 39 86  1  0
 42 87  1  0
 42 88  1  0
 44 89  1  0
A    1
C34
A    2
C30
A    3
C32
A    4
N5
A    5
C24
A    6
C20
A    7
C1
A    8
C2
A    9
C6
A   10
C4
A   11
C3
A   12
C15
A   13
C38
A   14
C39
A   15
C41
A   16
C42
A   17
C49
A   18
C51
A   19
C53
A   20
C54
A   21
C55
A   22
C56
A   23
C57
A   24
C66
A   25
C68
A   26
C70
A   27
C72
A   28
C73
A   29
C74
A   30
C75
A   31
C76
A   32
C85
A   33
C89
A   34
C91
A   35
C93
A   36
C94
A   37
C95
A   38
C96
A   39
C97
A   40
N13
A   41
N14
A   42
N28
A   43
N36
A   44
N87
A   45
O22
A   46
O26
A   47
O40
A   48
CL3
A   49
CL4
M  END
