5QCI_BJV_A_803
     RDKit          3D

 90 95  0  0  0  0  0  0  0  0999 V2000
   -0.4030   -2.9920  -30.8320 C   0  0  0  0  0  0  0  0  0  0  0  0
    0.6860   -4.8200  -31.7460 C   0  0  0  0  0  0  0  0  0  0  0  0
    1.4480   -4.8910  -30.4300 C   0  0  0  0  0  0  0  0  0  0  0  0
   -0.0620   -3.3070  -29.3920 C   0  0  0  0  0  0  0  0  0  0  0  0
    1.4300   -3.6170  -27.1090 C   0  0  0  0  0  0  0  0  0  0  0  0
   -0.8370   -5.9580  -24.4620 C   0  0  0  0  0  0  0  0  0  0  0  0
    1.2230   -4.8650  -27.9770 C   0  0  0  0  0  0  0  0  0  0  0  0
    1.7870   -3.9530  -25.6590 C   0  0  0  0  0  0  0  0  0  0  0  0
    0.1920   -6.9350  -24.4010 C   0  0  0  0  0  0  0  0  0  0  0  0
    1.3030   -6.3080  -24.8330 C   0  0  0  0  0  0  0  0  0  0  0  0
    2.6640   -6.9370  -24.9420 C   0  0  0  0  0  0  0  0  0  0  0  0
    2.5790   -8.4300  -24.6240 C   0  0  0  0  0  0  0  0  0  0  0  0
    0.1980   -8.3680  -23.9680 C   0  0  0  0  0  0  0  0  0  0  0  0
   -2.2620   -6.0790  -24.1260 C   0  0  0  0  0  0  0  0  0  0  0  0
    1.6580  -11.3540  -23.2160 C   0  0  0  0  0  0  0  0  0  0  0  0
   -2.8730   -7.3150  -24.3080 C   0  0  0  0  0  0  0  0  0  0  0  0
   -4.2200   -7.4990  -24.0190 C   0  0  0  0  0  0  0  0  0  0  0  0
   -4.9590   -6.4100  -23.5410 C   0  0  0  0  0  0  0  0  0  0  0  0
   -4.3600   -5.1720  -23.3600 C   0  0  0  0  0  0  0  0  0  0  0  0
   -3.0150   -5.0080  -23.6540 C   0  0  0  0  0  0  0  0  0  0  0  0
   -4.7870   -8.7950  -24.2320 C   0  0  0  0  0  0  0  0  0  0  0  0
   -5.1240   -9.9240  -24.4330 C   0  0  0  0  0  0  0  0  0  0  0  0
   -5.4630  -11.3030  -24.6460 C   0  0  0  0  0  0  0  0  0  0  0  0
   -4.4730  -12.2840  -24.6870 C   0  0  0  0  0  0  0  0  0  0  0  0
   -4.8170  -13.6090  -24.8990 C   0  0  0  0  0  0  0  0  0  0  0  0
   -6.1530  -13.9520  -25.0680 C   0  0  0  0  0  0  0  0  0  0  0  0
   -7.1580  -12.9820  -25.0300 C   0  0  0  0  0  0  0  0  0  0  0  0
   -6.7980  -11.6570  -24.8160 C   0  0  0  0  0  0  0  0  0  0  0  0
   -5.6050  -16.2620  -25.4120 C   0  0  0  0  0  0  0  0  0  0  0  0
   -8.6060  -13.3660  -25.2080 C   0  0  0  0  0  0  0  0  0  0  0  0
   -9.3810  -14.5600  -23.2310 C   0  0  0  0  0  0  0  0  0  0  0  0
   -9.9110  -14.4660  -21.8210 C   0  0  0  0  0  0  0  0  0  0  0  0
   -9.0540  -14.6150  -20.7260 C   0  0  0  0  0  0  0  0  0  0  0  0
   -9.5410  -14.5300  -19.4330 C   0  0  0  0  0  0  0  0  0  0  0  0
  -10.8850  -14.2970  -19.2110 C   0  0  0  0  0  0  0  0  0  0  0  0
  -11.7410  -14.1490  -20.2840 C   0  0  0  0  0  0  0  0  0  0  0  0
  -11.2580  -14.2330  -21.5810 C   0  0  0  0  0  0  0  0  0  0  0  0
    0.9570   -5.0340  -25.1410 N   0  0  0  0  0  0  0  0  0  0  0  0
   -0.3730   -4.7980  -24.9250 N   0  0  0  0  0  0  0  0  0  0  0  0
    1.5860   -8.6550  -23.5570 N   0  0  0  0  0  0  0  0  0  0  0  0
    0.5380   -4.6470  -29.2850 N   0  0  0  0  0  0  0  0  0  0  0  0
   -9.3160  -13.2680  -23.9220 N   0  0  0  0  0  0  0  0  0  0  0  0
   -0.5700   -4.1720  -31.5980 O   0  0  0  0  0  0  0  0  0  0  0  0
    0.9910   -9.6320  -21.3930 O   0  0  0  0  0  0  0  0  0  0  0  0
    3.3260   -9.6780  -22.1620 O   0  0  0  0  0  0  0  0  0  0  0  0
   -6.5920  -15.2310  -25.2810 O   0  0  0  0  0  0  0  0  0  0  0  0
    1.9340   -9.7980  -22.4560 S   0  0  0  0  0  0  0  0  0  0  0  0
   -6.6540   -6.5900  -23.1650 Cl  0  0  0  0  0  0  0  0  0  0  0  0
    0.4107   -2.3947  -31.2692 H   0  0  0  0  0  0  0  0  0  0  0  0
   -1.3512   -2.4346  -30.8473 H   0  0  0  0  0  0  0  0  0  0  0  0
    0.5171   -5.8426  -32.1145 H   0  0  0  0  0  0  0  0  0  0  0  0
    1.2886   -4.2360  -32.4572 H   0  0  0  0  0  0  0  0  0  0  0  0
    1.8988   -5.8891  -30.3269 H   0  0  0  0  0  0  0  0  0  0  0  0
    2.2304   -4.1178  -30.4316 H   0  0  0  0  0  0  0  0  0  0  0  0
    0.6528   -2.5595  -29.0175 H   0  0  0  0  0  0  0  0  0  0  0  0
   -0.9852   -3.2820  -28.7944 H   0  0  0  0  0  0  0  0  0  0  0  0
    2.2458   -3.0196  -27.5420 H   0  0  0  0  0  0  0  0  0  0  0  0
    0.4799   -3.0629  -27.0953 H   0  0  0  0  0  0  0  0  0  0  0  0
    0.6221   -5.5816  -27.3979 H   0  0  0  0  0  0  0  0  0  0  0  0
    2.2327   -5.2224  -28.2274 H   0  0  0  0  0  0  0  0  0  0  0  0
    2.8425   -4.2591  -25.6125 H   0  0  0  0  0  0  0  0  0  0  0  0
    1.6113   -3.0580  -25.0441 H   0  0  0  0  0  0  0  0  0  0  0  0
    3.0455   -6.8039  -25.9651 H   0  0  0  0  0  0  0  0  0  0  0  0
    3.3428   -6.4537  -24.2239 H   0  0  0  0  0  0  0  0  0  0  0  0
    2.2760   -8.9796  -25.5274 H   0  0  0  0  0  0  0  0  0  0  0  0
    3.5632   -8.7874  -24.2870 H   0  0  0  0  0  0  0  0  0  0  0  0
   -0.4906   -8.5163  -23.1231 H   0  0  0  0  0  0  0  0  0  0  0  0
   -0.1331   -9.0376  -24.7755 H   0  0  0  0  0  0  0  0  0  0  0  0
    1.5218  -12.1219  -22.4403 H   0  0  0  0  0  0  0  0  0  0  0  0
    0.7552  -11.3012  -23.8422 H   0  0  0  0  0  0  0  0  0  0  0  0
    2.5239  -11.6149  -23.8422 H   0  0  0  0  0  0  0  0  0  0  0  0
   -2.2805   -8.1608  -24.6869 H   0  0  0  0  0  0  0  0  0  0  0  0
   -4.9502   -4.3231  -22.9844 H   0  0  0  0  0  0  0  0  0  0  0  0
   -2.5403   -4.0257  -23.5134 H   0  0  0  0  0  0  0  0  0  0  0  0
   -3.4176  -12.0054  -24.5508 H   0  0  0  0  0  0  0  0  0  0  0  0
   -4.0377  -14.3846  -24.9333 H   0  0  0  0  0  0  0  0  0  0  0  0
   -7.5761  -10.8802  -24.7806 H   0  0  0  0  0  0  0  0  0  0  0  0
   -5.2870  -16.5942  -24.4128 H   0  0  0  0  0  0  0  0  0  0  0  0
   -6.0341  -17.1126  -25.9619 H   0  0  0  0  0  0  0  0  0  0  0  0
   -4.7365  -15.8704  -25.9619 H   0  0  0  0  0  0  0  0  0  0  0  0
   -9.0756  -12.6879  -25.9357 H   0  0  0  0  0  0  0  0  0  0  0  0
   -8.6620  -14.4023  -25.5727 H   0  0  0  0  0  0  0  0  0  0  0  0
  -10.0386  -15.2288  -23.8057 H   0  0  0  0  0  0  0  0  0  0  0  0
   -8.3515  -14.9415  -23.1635 H   0  0  0  0  0  0  0  0  0  0  0  0
   -7.9830  -14.8015  -20.8937 H   0  0  0  0  0  0  0  0  0  0  0  0
   -8.8565  -14.6482  -18.5801 H   0  0  0  0  0  0  0  0  0  0  0  0
  -11.2713  -14.2297  -18.1832 H   0  0  0  0  0  0  0  0  0  0  0  0
  -12.8111  -13.9636  -20.1092 H   0  0  0  0  0  0  0  0  0  0  0  0
  -11.9493  -14.1138  -22.4282 H   0  0  0  0  0  0  0  0  0  0  0  0
   -8.8225  -12.5934  -23.3202 H   0  0  0  0  0  0  0  0  0  0  0  0
  2 43  1  0
  2  3  1  0
 43  1  1  0
  1  4  1  0
  3 41  1  0
  4 41  1  0
 41  7  1  0
  7  5  1  0
  5  8  1  0
  8 38  1  0
 29 46  1  0
 46 26  1  0
 30 27  1  0
 30 42  1  0
 38 39  1  0
 38 10  1  0
 26 27  2  0
 26 25  1  0
 27 28  1  0
 11 10  1  0
 11 12  1  0
 39  6  2  0
 25 24  2  0
 10  9  2  0
 28 23  2  0
 24 23  1  0
 23 22  1  0
 12 40  1  0
  6  9  1  0
  6 14  1  0
 22 21  3  0
  9 13  1  0
 16 14  2  0
 16 17  1  0
 21 17  1  0
 14 20  1  0
 17 18  2  0
 13 40  1  0
 42 31  1  0
 20 19  2  0
 40 47  1  0
 18 19  1  0
 18 48  1  0
 31 32  1  0
 15 47  1  0
 47 45  2  0
 47 44  2  0
 32 37  1  0
 32 33  2  0
 37 36  2  0
 33 34  1  0
 36 35  1  0
 34 35  2  0
  1 49  1  0
  1 50  1  0
  2 51  1  0
  2 52  1  0
  3 53  1  0
  3 54  1  0
  4 55  1  0
  4 56  1  0
  5 57  1  0
  5 58  1  0
  7 59  1  0
  7 60  1  0
  8 61  1  0
  8 62  1  0
 11 63  1  0
 11 64  1  0
 12 65  1  0
 12 66  1  0
 13 67  1  0
 13 68  1  0
 15 69  1  0
 15 70  1  0
 15 71  1  0
 16 72  1  0
 19 73  1  0
 20 74  1  0
 24 75  1  0
 25 76  1  0
 28 77  1  0
 29 78  1  0
 29 79  1  0
 29 80  1  0
 30 81  1  0
 30 82  1  0
 31 83  1  0
 31 84  1  0
 33 85  1  0
 34 86  1  0
 35 87  1  0
 36 88  1  0
 37 89  1  0
 42 90  1  0
A    1
C2
A    2
C6
A    3
C5
A    4
C3
A    5
C15
A    6
C22
A    7
C13
A    8
C17
A    9
C23
A   10
C24
A   11
C30
A   12
C31
A   13
C33
A   14
C39
A   15
C45
A   16
C49
A   17
C50
A   18
C51
A   19
C52
A   20
C53
A   21
C62
A   22
C64
A   23
C66
A   24
C68
A   25
C69
A   26
C70
A   27
C71
A   28
C72
A   29
C81
A   30
C83
A   31
C87
A   32
C89
A   33
C91
A   34
C92
A   35
C93
A   36
C94
A   37
C95
A   38
N19
A   39
N21
A   40
N32
A   41
N4
A   42
N85
A   43
O1
A   44
O43
A   45
O47
A   46
O79
A   47
S41
A   48
CL6
M  END
