5QCJ_BJY_A_901
     RDKit          3D

 77 82  0  0  0  0  0  0  0  0999 V2000
  -11.3430   -7.9700  -13.7730 C   0  0  0  0  0  0  0  0  0  0  0  0
  -13.1910   -9.6540  -16.3040 C   0  0  0  0  0  0  0  0  0  0  0  0
  -14.5290  -10.2430  -15.8520 C   0  0  0  0  0  0  0  0  0  0  0  0
   -9.7170   -9.7310  -12.6490 C   0  0  0  0  0  0  0  0  0  0  0  0
  -10.7640   -9.2430  -13.5870 C   0  0  0  0  0  0  0  0  0  0  0  0
   -7.5810  -12.2020  -11.4640 C   0  0  0  0  0  0  0  0  0  0  0  0
  -11.3660  -10.0510  -14.4970 C   0  0  0  0  0  0  0  0  0  0  0  0
  -11.0610  -11.5180  -14.6780 C   0  0  0  0  0  0  0  0  0  0  0  0
  -10.0800  -11.9760  -13.5760 C   0  0  0  0  0  0  0  0  0  0  0  0
  -15.2510   -9.3850  -14.8180 C   0  0  0  0  0  0  0  0  0  0  0  0
  -17.5890   -8.6320  -14.2570 C   0  0  0  0  0  0  0  0  0  0  0  0
  -18.0150   -8.9170  -12.8070 C   0  0  0  0  0  0  0  0  0  0  0  0
  -18.7710  -10.2630  -12.6630 C   0  0  0  0  0  0  0  0  0  0  0  0
  -18.5680  -11.0880  -13.9040 C   0  0  0  0  0  0  0  0  0  0  0  0
  -17.0820  -11.0270  -14.2630 C   0  0  0  0  0  0  0  0  0  0  0  0
  -20.2180  -10.1170  -12.2220 C   0  0  0  0  0  0  0  0  0  0  0  0
  -20.7580  -10.5820  -11.0520 C   0  0  0  0  0  0  0  0  0  0  0  0
  -22.4470   -9.5870  -12.1240 C   0  0  0  0  0  0  0  0  0  0  0  0
  -23.6740   -9.0610  -12.5200 C   0  0  0  0  0  0  0  0  0  0  0  0
  -23.7290   -8.4160  -13.7350 C   0  0  0  0  0  0  0  0  0  0  0  0
  -21.3990   -8.8160  -14.1370 C   0  0  0  0  0  0  0  0  0  0  0  0
  -21.2920   -9.4700  -12.9300 C   0  0  0  0  0  0  0  0  0  0  0  0
  -11.0810   -6.7050  -13.0440 C   0  0  0  0  0  0  0  0  0  0  0  0
  -11.2360   -5.4680  -13.6680 C   0  0  0  0  0  0  0  0  0  0  0  0
  -10.9950   -4.3000  -12.9730 C   0  0  0  0  0  0  0  0  0  0  0  0
  -10.6030   -4.3250  -11.6410 C   0  0  0  0  0  0  0  0  0  0  0  0
  -10.4510   -5.5570  -11.0150 C   0  0  0  0  0  0  0  0  0  0  0  0
  -10.6850   -6.7310  -11.7050 C   0  0  0  0  0  0  0  0  0  0  0  0
  -10.3550   -3.0540  -10.9020 C   0  0  0  0  0  0  0  0  0  0  0  0
   -9.7900   -2.1250  -11.6430 F   0  0  0  0  0  0  0  0  0  0  0  0
  -11.4220   -2.4950  -10.5430 F   0  0  0  0  0  0  0  0  0  0  0  0
   -9.6100   -3.2220   -9.7960 F   0  0  0  0  0  0  0  0  0  0  0  0
  -12.2620   -7.9930  -14.7440 N   0  0  0  0  0  0  0  0  0  0  0  0
  -12.2620   -9.2950  -15.1820 N   0  0  0  0  0  0  0  0  0  0  0  0
  -16.7060   -9.6920  -14.7960 N   0  0  0  0  0  0  0  0  0  0  0  0
  -22.6020   -8.3160  -14.4950 N   0  0  0  0  0  0  0  0  0  0  0  0
  -22.0910  -10.2690  -10.9870 N   0  0  0  0  0  0  0  0  0  0  0  0
   -9.1050  -10.8690  -13.2750 N   0  0  0  0  0  0  0  0  0  0  0  0
  -22.6990   -7.6710  -15.6950 O   0  0  0  0  0  0  0  0  0  0  0  0
   -7.1660  -12.1480  -14.0440 O   0  0  0  0  0  0  0  0  0  0  0  0
   -6.8390  -10.0860  -12.7660 O   0  0  0  0  0  0  0  0  0  0  0  0
  -14.2660  -11.5030  -15.2360 O   0  0  0  0  0  0  0  0  0  0  0  0
   -7.5720  -11.2940  -12.9730 S   0  0  0  0  0  0  0  0  0  0  0  0
  -12.6879  -10.3938  -16.9440 H   0  0  0  0  0  0  0  0  0  0  0  0
  -13.4224   -8.7173  -16.8323 H   0  0  0  0  0  0  0  0  0  0  0  0
  -15.1698  -10.3135  -16.7433 H   0  0  0  0  0  0  0  0  0  0  0  0
   -8.9676   -8.9450  -12.4742 H   0  0  0  0  0  0  0  0  0  0  0  0
  -10.1508   -9.9994  -11.6744 H   0  0  0  0  0  0  0  0  0  0  0  0
   -7.5741  -11.5025  -10.6151 H   0  0  0  0  0  0  0  0  0  0  0  0
   -8.4854  -12.8264  -11.4172 H   0  0  0  0  0  0  0  0  0  0  0  0
   -6.6892  -12.8442  -11.4172 H   0  0  0  0  0  0  0  0  0  0  0  0
  -11.9925  -12.0986  -14.6050 H   0  0  0  0  0  0  0  0  0  0  0  0
  -10.6063  -11.6803  -15.6664 H   0  0  0  0  0  0  0  0  0  0  0  0
  -10.6436  -12.2251  -12.6648 H   0  0  0  0  0  0  0  0  0  0  0  0
   -9.5296  -12.8629  -13.9229 H   0  0  0  0  0  0  0  0  0  0  0  0
  -14.8256   -9.5853  -13.8236 H   0  0  0  0  0  0  0  0  0  0  0  0
  -15.1193   -8.3264  -15.0862 H   0  0  0  0  0  0  0  0  0  0  0  0
  -17.0511   -7.6729  -14.2868 H   0  0  0  0  0  0  0  0  0  0  0  0
  -18.4970   -8.5993  -14.8770 H   0  0  0  0  0  0  0  0  0  0  0  0
  -17.1153   -8.9485  -12.1749 H   0  0  0  0  0  0  0  0  0  0  0  0
  -18.7001   -8.1144  -12.4964 H   0  0  0  0  0  0  0  0  0  0  0  0
  -18.3299  -10.8193  -11.8227 H   0  0  0  0  0  0  0  0  0  0  0  0
  -19.1701  -10.6790  -14.7288 H   0  0  0  0  0  0  0  0  0  0  0  0
  -18.8810  -12.1283  -13.7314 H   0  0  0  0  0  0  0  0  0  0  0  0
  -16.8667  -11.7901  -15.0254 H   0  0  0  0  0  0  0  0  0  0  0  0
  -16.4979  -11.2114  -13.3493 H   0  0  0  0  0  0  0  0  0  0  0  0
  -20.2017  -11.1282  -10.2760 H   0  0  0  0  0  0  0  0  0  0  0  0
  -24.5670   -9.1574  -11.8850 H   0  0  0  0  0  0  0  0  0  0  0  0
  -24.6763   -7.9842  -14.0901 H   0  0  0  0  0  0  0  0  0  0  0  0
  -20.5247   -8.7032  -14.7949 H   0  0  0  0  0  0  0  0  0  0  0  0
  -11.5523   -5.4225  -14.7206 H   0  0  0  0  0  0  0  0  0  0  0  0
  -11.1155   -3.3328  -13.4830 H   0  0  0  0  0  0  0  0  0  0  0  0
  -10.1415   -5.5975   -9.9602 H   0  0  0  0  0  0  0  0  0  0  0  0
  -10.5580   -7.6968  -11.1940 H   0  0  0  0  0  0  0  0  0  0  0  0
  -22.7238  -10.5072  -10.2100 H   0  0  0  0  0  0  0  0  0  0  0  0
  -22.8462   -6.6923  -15.7205 H   0  0  0  0  0  0  0  0  0  0  0  0
  -14.2875  -11.4000  -14.2516 H   0  0  0  0  0  0  0  0  0  0  0  0
  2  3  1  0
  2 34  1  0
 39 36  1  0
  3 42  1  0
  3 10  1  0
 34 33  1  0
 34  7  1  0
 35 10  1  0
 35 15  1  0
 35 11  1  0
 33  1  2  0
  8  7  1  0
  8  9  1  0
 36 21  1  0
 36 20  2  0
  7  5  2  0
 15 14  1  0
 21 22  2  0
 11 12  1  0
 40 43  2  0
 20 19  1  0
 12 13  1  0
  1  5  1  0
  1 23  1  0
 24 23  2  0
 24 25  1  0
  9 38  1  0
  5  4  1  0
 38 43  1  0
 38  4  1  0
 23 28  1  0
 43 41  2  0
 43  6  1  0
 25 26  2  0
 22 16  1  0
 22 18  1  0
 14 13  1  0
 19 18  2  0
 13 16  1  0
 16 17  2  0
 18 37  1  0
 32 29  1  0
 28 27  2  0
 26 27  1  0
 26 29  1  0
 17 37  1  0
 29 30  1  0
 29 31  1  0
  2 44  1  0
  2 45  1  0
  3 46  1  0
  4 47  1  0
  4 48  1  0
  6 49  1  0
  6 50  1  0
  6 51  1  0
  8 52  1  0
  8 53  1  0
  9 54  1  0
  9 55  1  0
 10 56  1  0
 10 57  1  0
 11 58  1  0
 11 59  1  0
 12 60  1  0
 12 61  1  0
 13 62  1  0
 14 63  1  0
 14 64  1  0
 15 65  1  0
 15 66  1  0
 17 67  1  0
 19 68  1  0
 20 69  1  0
 21 70  1  0
 24 71  1  0
 25 72  1  0
 27 73  1  0
 28 74  1  0
 37 75  1  0
 39 76  1  0
 42 77  1  0
M  CHG  1  36   1
A    1
C11
A    2
C14
A    3
C15
A    4
C10
A    5
C9
A    6
C1
A    7
C8
A    8
C7
A    9
C6
A   10
C16
A   11
C18
A   12
C19
A   13
C20
A   14
C21
A   15
C22
A   16
C23
A   17
C24
A   18
C25
A   19
C26
A   20
C27
A   21
C30
A   22
C31
A   23
C32
A   24
C33
A   25
C34
A   26
C35
A   27
C36
A   28
C37
A   29
C38
A   30
F39
A   31
F40
A   32
F41
A   33
N12
A   34
N13
A   35
N17
A   36
N28
A   37
N43
A   38
N5
A   39
O29
A   40
O3
A   41
O4
A   42
O42
A   43
S2
M  END
