5QCM_BVJ_A_301
     RDKit          3D

 64 68  0  0  0  0  0  0  0  0999 V2000
   38.4170  -17.1640   28.2360 C   0  0  0  0  0  0  0  0  0  0  0  0
   38.9180  -20.9600   27.3200 C   0  0  0  0  0  0  0  0  0  0  0  0
   39.3420  -19.2300   29.1570 C   0  0  0  0  0  0  0  0  0  0  0  0
   40.3750  -21.4340   29.3410 C   0  0  0  0  0  0  0  0  0  0  0  0
   40.2140  -22.9130   29.0360 C   0  0  0  0  0  0  0  0  0  0  0  0
   39.9000  -23.2320   27.7120 C   0  0  0  0  0  0  0  0  0  0  0  0
   39.6780  -22.1250   26.7090 C   0  0  0  0  0  0  0  0  0  0  0  0
   40.4080  -23.9350   29.9640 C   0  0  0  0  0  0  0  0  0  0  0  0
   44.9490  -20.8800   29.6190 C   0  0  0  0  0  0  0  0  0  0  0  0
   39.8100  -24.5730   27.3460 C   0  0  0  0  0  0  0  0  0  0  0  0
   46.2980  -20.9390   29.9340 C   0  0  0  0  0  0  0  0  0  0  0  0
   34.0340  -14.5850   29.6310 Cl  0  0  0  0  0  0  0  0  0  0  0  0
   37.0440  -13.8030   27.1080 C   0  0  0  0  0  0  0  0  0  0  0  0
   35.8630  -13.7070   27.8260 C   0  0  0  0  0  0  0  0  0  0  0  0
   35.4870  -14.7350   28.6710 C   0  0  0  0  0  0  0  0  0  0  0  0
   36.3010  -15.8500   28.8030 C   0  0  0  0  0  0  0  0  0  0  0  0
   37.5100  -15.9870   28.1110 C   0  0  0  0  0  0  0  0  0  0  0  0
   37.8320  -14.9510   27.2200 C   0  0  0  0  0  0  0  0  0  0  0  0
   38.8830  -15.1630   26.2750 N   0  0  0  0  0  0  0  0  0  0  0  0
   38.8680  -15.2980   24.9450 C   0  0  0  0  0  0  0  0  0  0  0  0
   40.0560  -15.6390   24.5260 N   0  0  0  0  0  0  0  0  0  0  0  0
   40.8310  -15.7060   25.6380 N   0  0  0  0  0  0  0  0  0  0  0  0
   40.1460  -15.4110   26.6960 N   0  0  0  0  0  0  0  0  0  0  0  0
   38.2130  -18.3990   28.6660 C   0  0  0  0  0  0  0  0  0  0  0  0
   40.0290  -18.8960   30.1110 O   0  0  0  0  0  0  0  0  0  0  0  0
   35.9210  -16.8190   29.6480 F   0  0  0  0  0  0  0  0  0  0  0  0
   39.5860  -20.4730   28.5370 N   0  0  0  0  0  0  0  0  0  0  0  0
   40.3170  -25.2570   29.5830 C   0  0  0  0  0  0  0  0  0  0  0  0
   40.0190  -25.5790   28.2770 C   0  0  0  0  0  0  0  0  0  0  0  0
   41.8750  -21.1320   29.2000 C   0  0  0  0  0  0  0  0  0  0  0  0
   42.3390  -20.7000   28.1450 O   0  0  0  0  0  0  0  0  0  0  0  0
   44.4070  -21.7280   31.7990 C   0  0  0  0  0  0  0  0  0  0  0  0
   45.7510  -21.7820   32.1130 C   0  0  0  0  0  0  0  0  0  0  0  0
   46.7110  -21.4230   31.1730 C   0  0  0  0  0  0  0  0  0  0  0  0
   43.9940  -21.3040   30.5410 C   0  0  0  0  0  0  0  0  0  0  0  0
   42.6010  -21.4210   30.3060 N   0  0  0  0  0  0  0  0  0  0  0  0
   48.0360  -21.7390   31.5690 N   0  0  0  0  0  0  0  0  0  0  0  0
   49.1950  -21.5560   30.8890 C   0  0  0  0  0  0  0  0  0  0  0  0
   50.1620  -22.3000   31.4650 O   0  0  0  0  0  0  0  0  0  0  0  0
   49.3570  -20.8460   29.9180 O   0  0  0  0  0  0  0  0  0  0  0  0
   51.1910  -22.8290   30.5890 C   0  0  0  0  0  0  0  0  0  0  0  0
   39.4493  -16.9693   27.9096 H   0  0  0  0  0  0  0  0  0  0  0  0
   38.8649  -20.1415   26.5871 H   0  0  0  0  0  0  0  0  0  0  0  0
   37.9082  -21.3036   27.5889 H   0  0  0  0  0  0  0  0  0  0  0  0
   39.9673  -21.2789   30.3508 H   0  0  0  0  0  0  0  0  0  0  0  0
   39.1008  -22.5222   25.8610 H   0  0  0  0  0  0  0  0  0  0  0  0
   40.6610  -21.7586   26.3782 H   0  0  0  0  0  0  0  0  0  0  0  0
   40.6359  -23.6843   31.0105 H   0  0  0  0  0  0  0  0  0  0  0  0
   44.6315  -20.4972   28.6379 H   0  0  0  0  0  0  0  0  0  0  0  0
   39.5701  -24.8371   26.3055 H   0  0  0  0  0  0  0  0  0  0  0  0
   47.0461  -20.6017   29.2014 H   0  0  0  0  0  0  0  0  0  0  0  0
   37.3600  -12.9783   26.4522 H   0  0  0  0  0  0  0  0  0  0  0  0
   35.2264  -12.8157   27.7242 H   0  0  0  0  0  0  0  0  0  0  0  0
   37.9887  -15.1450   24.3021 H   0  0  0  0  0  0  0  0  0  0  0  0
   37.1948  -18.8152   28.6597 H   0  0  0  0  0  0  0  0  0  0  0  0
   40.4824  -26.0548   30.3220 H   0  0  0  0  0  0  0  0  0  0  0  0
   39.9469  -26.6337   27.9730 H   0  0  0  0  0  0  0  0  0  0  0  0
   43.6584  -22.0224   32.5493 H   0  0  0  0  0  0  0  0  0  0  0  0
   46.0645  -22.1116   33.1145 H   0  0  0  0  0  0  0  0  0  0  0  0
   42.0554  -21.7826   31.1013 H   0  0  0  0  0  0  0  0  0  0  0  0
   48.1309  -22.1663   32.5014 H   0  0  0  0  0  0  0  0  0  0  0  0
   52.0077  -23.2489   31.1945 H   0  0  0  0  0  0  0  0  0  0  0  0
   50.7620  -23.6183   29.9542 H   0  0  0  0  0  0  0  0  0  0  0  0
   51.5833  -22.0208   29.9542 H   0  0  0  0  0  0  0  0  0  0  0  0
 21 20  2  0
 21 22  1  0
 20 19  1  0
 22 23  2  0
 19 23  1  0
 19 18  1  0
  7  2  1  0
  7  6  1  0
 13 18  2  0
 13 14  1  0
 18 17  1  0
  2 27  1  0
 10  6  1  0
 10 29  2  0
  6  5  2  0
 14 15  2  0
 17  1  1  0
 17 16  2  0
 31 30  2  0
  1 24  2  0
 29 28  1  0
 27  3  1  0
 27  4  1  0
 24  3  1  0
 15 16  1  0
 15 12  1  0
 16 26  1  0
  5  4  1  0
  5  8  1  0
  3 25  2  0
 30  4  1  0
 30 36  1  0
 28  8  2  0
  9 11  2  0
  9 35  1  0
 40 38  2  0
 11 34  1  0
 36 35  1  0
 35 32  2  0
 41 39  1  0
 38 39  1  0
 38 37  1  0
 34 37  1  0
 34 33  2  0
 32 33  1  0
  1 42  1  0
  2 43  1  0
  2 44  1  0
  4 45  1  0
  7 46  1  0
  7 47  1  0
  8 48  1  0
  9 49  1  0
 10 50  1  0
 11 51  1  0
 13 52  1  0
 14 53  1  0
 20 54  1  0
 24 55  1  0
 28 56  1  0
 29 57  1  0
 32 58  1  0
 33 59  1  0
 36 60  1  0
 37 61  1  0
 41 62  1  0
 41 63  1  0
 41 64  1  0
A    1
C13
A    2
C18
A    3
C15
A    4
C20
A    5
C21
A    6
C22
A    7
C23
A    8
C24
A    9
C34
A   10
C27
A   11
C33
A   12
CL1
A   13
C2
A   14
C3
A   15
C4
A   16
C5
A   17
C6
A   18
C7
A   19
N8
A   20
C9
A   21
N10
A   22
N11
A   23
N12
A   24
C14
A   25
O16
A   26
F17
A   27
N19
A   28
C25
A   29
C26
A   30
C28
A   31
O29
A   32
C30
A   33
C31
A   34
C32
A   35
C35
A   36
N36
A   37
N37
A   38
C38
A   39
O39
A   40
O40
A   41
C41
M  END
