5QCN_BVM_A_301
     RDKit          3D

 85 90  0  0  0  0  0  0  0  0999 V2000
   38.1240  -16.8570   28.2490 C   0  0  0  0  0  0  0  0  0  0  0  0
   39.9800  -21.3980   28.6200 C   0  0  0  0  0  0  0  0  0  0  0  0
   38.9740  -19.1250   28.5930 C   0  0  0  0  0  0  0  0  0  0  0  0
   39.9000  -22.8150   28.0840 C   0  0  0  0  0  0  0  0  0  0  0  0
   39.6060  -22.9510   26.7250 C   0  0  0  0  0  0  0  0  0  0  0  0
   39.2250  -21.7280   25.9220 C   0  0  0  0  0  0  0  0  0  0  0  0
   38.3690  -20.7950   26.7500 C   0  0  0  0  0  0  0  0  0  0  0  0
   40.1080  -23.9480   28.8670 C   0  0  0  0  0  0  0  0  0  0  0  0
   40.0620  -25.2100   28.2980 C   0  0  0  0  0  0  0  0  0  0  0  0
   45.5270  -21.5680   31.0920 C   0  0  0  0  0  0  0  0  0  0  0  0
   41.4560  -20.9880   28.4880 C   0  0  0  0  0  0  0  0  0  0  0  0
   46.3680  -21.0460   30.1080 C   0  0  0  0  0  0  0  0  0  0  0  0
   33.7060  -14.4270   29.2800 Cl  0  0  0  0  0  0  0  0  0  0  0  0
   36.5870  -13.8240   26.5850 C   0  0  0  0  0  0  0  0  0  0  0  0
   35.4260  -13.6880   27.3330 C   0  0  0  0  0  0  0  0  0  0  0  0
   35.1420  -14.6190   28.3100 C   0  0  0  0  0  0  0  0  0  0  0  0
   35.9870  -15.6790   28.5620 C   0  0  0  0  0  0  0  0  0  0  0  0
   37.1870  -15.8000   27.8490 C   0  0  0  0  0  0  0  0  0  0  0  0
   37.4730  -14.8720   26.8300 C   0  0  0  0  0  0  0  0  0  0  0  0
   38.5060  -15.1320   25.8810 N   0  0  0  0  0  0  0  0  0  0  0  0
   38.5780  -14.9550   24.5570 C   0  0  0  0  0  0  0  0  0  0  0  0
   39.7890  -15.2090   24.1440 N   0  0  0  0  0  0  0  0  0  0  0  0
   40.4990  -15.5080   25.2610 N   0  0  0  0  0  0  0  0  0  0  0  0
   39.7460  -15.4670   26.3130 N   0  0  0  0  0  0  0  0  0  0  0  0
   38.0030  -18.1540   28.0300 C   0  0  0  0  0  0  0  0  0  0  0  0
   39.6920  -18.8620   29.5580 O   0  0  0  0  0  0  0  0  0  0  0  0
   39.0790  -20.4050   27.9770 N   0  0  0  0  0  0  0  0  0  0  0  0
   39.8130  -25.3580   26.9400 C   0  0  0  0  0  0  0  0  0  0  0  0
   39.5750  -24.2310   26.1500 C   0  0  0  0  0  0  0  0  0  0  0  0
   41.9040  -20.5570   27.4240 O   0  0  0  0  0  0  0  0  0  0  0  0
   42.1980  -21.2450   29.5870 N   0  0  0  0  0  0  0  0  0  0  0  0
   43.5920  -21.0960   29.7430 C   0  0  0  0  0  0  0  0  0  0  0  0
   44.4210  -20.5420   28.7710 C   0  0  0  0  0  0  0  0  0  0  0  0
   45.7910  -20.5070   28.9610 C   0  0  0  0  0  0  0  0  0  0  0  0
   44.1560  -21.5970   30.9100 C   0  0  0  0  0  0  0  0  0  0  0  0
   47.8530  -20.9690   30.3030 C   0  0  0  0  0  0  0  0  0  0  0  0
   48.3650  -21.6160   31.3190 O   0  0  0  0  0  0  0  0  0  0  0  0
   48.5350  -20.2240   29.6170 O   0  0  0  0  0  0  0  0  0  0  0  0
   39.1980  -24.4050   24.7040 C   0  0  0  0  0  0  0  0  0  0  0  0
   38.0450  -24.6940   24.4350 O   0  0  0  0  0  0  0  0  0  0  0  0
   40.1070  -24.0960   23.7540 N   0  0  0  0  0  0  0  0  0  0  0  0
   39.7610  -24.0180   22.3330 C   0  0  0  0  0  0  0  0  0  0  0  0
   40.1130  -22.6340   21.7770 C   0  0  0  0  0  0  0  0  0  0  0  0
   41.5850  -22.2780   22.0530 C   0  0  0  0  0  0  0  0  0  0  0  0
   41.9800  -22.5010   23.5100 C   0  0  0  0  0  0  0  0  0  0  0  0
   41.5450  -23.8720   23.9860 C   0  0  0  0  0  0  0  0  0  0  0  0
   39.1350  -21.5680   22.2330 C   0  0  0  0  0  0  0  0  0  0  0  0
   39.7690  -20.5120   22.7670 O   0  0  0  0  0  0  0  0  0  0  0  0
   37.9370  -21.6510   22.1360 O   0  0  0  0  0  0  0  0  0  0  0  0
   38.9790  -19.4120   23.3250 C   0  0  0  0  0  0  0  0  0  0  0  0
   39.8760  -18.6010   24.2040 C   0  0  0  0  0  0  0  0  0  0  0  0
   39.0254  -16.5336   28.7902 H   0  0  0  0  0  0  0  0  0  0  0  0
   39.6206  -21.3985   29.6596 H   0  0  0  0  0  0  0  0  0  0  0  0
   40.1387  -21.2004   25.6109 H   0  0  0  0  0  0  0  0  0  0  0  0
   38.6515  -22.0470   25.0392 H   0  0  0  0  0  0  0  0  0  0  0  0
   38.1400  -19.8944   26.1614 H   0  0  0  0  0  0  0  0  0  0  0  0
   37.4380  -21.3126   27.0245 H   0  0  0  0  0  0  0  0  0  0  0  0
   40.3099  -23.8400   29.9429 H   0  0  0  0  0  0  0  0  0  0  0  0
   40.2235  -26.0993   28.9250 H   0  0  0  0  0  0  0  0  0  0  0  0
   45.9597  -21.9612   32.0237 H   0  0  0  0  0  0  0  0  0  0  0  0
   36.8105  -13.0971   25.7903 H   0  0  0  0  0  0  0  0  0  0  0  0
   34.7405  -12.8477   27.1488 H   0  0  0  0  0  0  0  0  0  0  0  0
   35.7195  -16.4284   29.3215 H   0  0  0  0  0  0  0  0  0  0  0  0
   37.7422  -14.6425   23.9137 H   0  0  0  0  0  0  0  0  0  0  0  0
   37.1660  -18.5217   27.4182 H   0  0  0  0  0  0  0  0  0  0  0  0
   39.8032  -26.3605   26.4874 H   0  0  0  0  0  0  0  0  0  0  0  0
   41.6843  -21.5913   30.4099 H   0  0  0  0  0  0  0  0  0  0  0  0
   43.9850  -20.1307   27.8487 H   0  0  0  0  0  0  0  0  0  0  0  0
   46.4332  -20.0471   28.1955 H   0  0  0  0  0  0  0  0  0  0  0  0
   43.5089  -22.0188   31.6931 H   0  0  0  0  0  0  0  0  0  0  0  0
   48.1456  -21.3388   32.2437 H   0  0  0  0  0  0  0  0  0  0  0  0
   38.6821  -24.1945   22.2117 H   0  0  0  0  0  0  0  0  0  0  0  0
   40.3310  -24.7811   21.7827 H   0  0  0  0  0  0  0  0  0  0  0  0
   40.0068  -22.6742   20.6829 H   0  0  0  0  0  0  0  0  0  0  0  0
   42.2247  -22.9052   21.4147 H   0  0  0  0  0  0  0  0  0  0  0  0
   41.7158  -21.2083   21.8326 H   0  0  0  0  0  0  0  0  0  0  0  0
   43.0729  -22.4177   23.6034 H   0  0  0  0  0  0  0  0  0  0  0  0
   41.4816  -21.7404   24.1289 H   0  0  0  0  0  0  0  0  0  0  0  0
   42.1178  -24.6372   23.4416 H   0  0  0  0  0  0  0  0  0  0  0  0
   41.7330  -23.9361   25.0679 H   0  0  0  0  0  0  0  0  0  0  0  0
   38.5858  -18.7843   22.5117 H   0  0  0  0  0  0  0  0  0  0  0  0
   38.1298  -19.8053   23.9032 H   0  0  0  0  0  0  0  0  0  0  0  0
   39.6437  -18.8110   25.2585 H   0  0  0  0  0  0  0  0  0  0  0  0
   40.9245  -18.8638   24.0001 H   0  0  0  0  0  0  0  0  0  0  0  0
   39.7198  -17.5314   24.0001 H   0  0  0  0  0  0  0  0  0  0  0  0
 43 44  1  0
 43 47  1  0
 43 42  1  0
 44 45  1  0
 49 47  2  0
 47 48  1  0
 42 41  1  0
 48 50  1  0
 50 51  1  0
 45 46  1  0
 41 46  1  0
 41 39  1  0
 22 21  2  0
 22 23  1  0
 40 39  2  0
 21 20  1  0
 39 29  1  0
 23 24  2  0
 20 24  1  0
 20 19  1  0
  6  5  1  0
  6  7  1  0
 29  5  1  0
 29 28  2  0
 14 19  2  0
 14 15  1  0
  5  4  2  0
  7 27  1  0
 19 18  1  0
 28  9  1  0
 15 16  2  0
 30 11  2  0
 18  1  1  0
 18 17  2  0
 27  3  1  0
 27  2  1  0
 25  1  2  0
 25  3  1  0
  4  2  1  0
  4  8  1  0
  9  8  2  0
 16 17  1  0
 16 13  1  0
 11  2  1  0
 11 31  1  0
  3 26  2  0
 33 34  2  0
 33 32  1  0
 34 12  1  0
 31 32  1  0
 38 36  2  0
 32 35  2  0
 12 36  1  0
 12 10  2  0
 36 37  1  0
 35 10  1  0
  1 52  1  0
  2 53  1  0
  6 54  1  0
  6 55  1  0
  7 56  1  0
  7 57  1  0
  8 58  1  0
  9 59  1  0
 10 60  1  0
 14 61  1  0
 15 62  1  0
 17 63  1  0
 21 64  1  0
 25 65  1  0
 28 66  1  0
 31 67  1  0
 33 68  1  0
 34 69  1  0
 35 70  1  0
 37 71  1  0
 42 72  1  0
 42 73  1  0
 43 74  1  0
 44 75  1  0
 44 76  1  0
 45 77  1  0
 45 78  1  0
 46 79  1  0
 46 80  1  0
 50 81  1  0
 50 82  1  0
 51 83  1  0
 51 84  1  0
 51 85  1  0
A    1
C13
A    2
C18
A    3
C15
A    4
C19
A    5
C20
A    6
C21
A    7
C22
A    8
C23
A    9
C24
A   10
C34
A   11
C27
A   12
C33
A   13
CL1
A   14
C2
A   15
C3
A   16
C4
A   17
C5
A   18
C6
A   19
C7
A   20
N8
A   21
C9
A   22
N10
A   23
N11
A   24
N12
A   25
C14
A   26
O16
A   27
N17
A   28
C25
A   29
C26
A   30
O28
A   31
N29
A   32
C30
A   33
C31
A   34
C32
A   35
C35
A   36
C36
A   37
O37
A   38
O38
A   39
C39
A   40
O40
A   41
N41
A   42
C42
A   43
C43
A   44
C44
A   45
C45
A   46
C46
A   47
C47
A   48
O48
A   49
O49
A   50
C50
A   51
C51
M  END
