4PY0_6AT_A_1201
     RDKit          3D

 51 53  0  0  0  0  0  0  0  0999 V2000
  -15.2530   -8.6140   18.6810 O   0  0  0  0  0  0  0  0  0  0  0  0
  -15.9670   -7.4550   17.8050 P   0  0  0  0  0  0  0  0  0  0  0  0
  -17.4150   -7.7410   17.7880 O   0  0  0  0  0  0  0  0  0  0  0  0
  -15.4780   -6.1360   18.2760 O   0  0  0  0  0  0  0  0  0  0  0  0
  -15.4170   -7.6930   16.3090 O   0  0  0  0  0  0  0  0  0  0  0  0
  -16.0090   -6.7970   15.1100 P   0  0  0  0  0  0  0  0  0  0  0  0
  -14.8890   -6.8040   13.9660 O   0  0  0  0  0  0  0  0  0  0  0  0
  -16.3230   -5.4120   15.5250 O   0  0  0  0  0  0  0  0  0  0  0  0
  -17.3280   -7.5680   14.5650 O   0  0  0  0  0  0  0  0  0  0  0  0
  -17.3290   -8.8900   13.6220 P   0  0  0  0  0  0  0  0  0  0  0  0
  -17.6210  -10.1360   14.5920 O   0  0  0  0  0  0  0  0  0  0  0  0
  -16.0990   -9.0830   12.8280 O   0  0  0  0  0  0  0  0  0  0  0  0
  -18.6230   -8.7930   12.6620 O   0  0  0  0  0  0  0  0  0  0  0  0
  -19.7410   -7.9480   12.9610 C   0  0  0  0  0  0  0  0  0  0  0  0
  -21.0260   -8.5280   12.3510 C   0  0  0  0  0  0  0  0  0  0  0  0
  -20.8010   -9.2260   11.0980 O   0  0  0  0  0  0  0  0  0  0  0  0
  -21.6990   -9.4900   13.3140 C   0  0  0  0  0  0  0  0  0  0  0  0
  -23.1190   -9.2370   13.3280 O   0  0  0  0  0  0  0  0  0  0  0  0
  -21.3870  -10.8520   12.7290 C   0  0  0  0  0  0  0  0  0  0  0  0
  -22.4430  -11.7890   12.9720 O   0  0  0  0  0  0  0  0  0  0  0  0
  -21.2320  -10.5990   11.2350 C   0  0  0  0  0  0  0  0  0  0  0  0
  -20.1920  -11.4730   10.6020 N   0  0  0  0  0  0  0  0  0  0  0  0
  -18.9880  -11.7690   11.0940 C   0  0  0  0  0  0  0  0  0  0  0  0
  -18.3610  -12.5560   10.2290 N   0  0  0  0  0  0  0  0  0  0  0  0
  -19.1590  -12.7270    9.1780 C   0  0  0  0  0  0  0  0  0  0  0  0
  -20.2940  -12.0510    9.4040 C   0  0  0  0  0  0  0  0  0  0  0  0
  -21.2810  -12.0580    8.4790 N   0  0  0  0  0  0  0  0  0  0  0  0
  -21.1380  -12.7500    7.3310 C   0  0  0  0  0  0  0  0  0  0  0  0
  -22.4660  -12.7370    6.1370 S   0  0  0  0  0  0  0  0  0  0  0  0
  -21.7190  -13.4690    4.6920 C   0  0  0  0  0  0  0  0  0  0  0  0
  -19.9900  -13.4270    7.1090 N   0  0  0  0  0  0  0  0  0  0  0  0
  -19.0140  -13.4120    8.0360 C   0  0  0  0  0  0  0  0  0  0  0  0
  -17.8660  -14.0670    7.8610 N   0  0  0  0  0  0  0  0  0  0  0  0
  -15.3724   -8.4202   19.6445 H   0  0  0  0  0  0  0  0  0  0  0  0
  -15.4722   -6.1205   19.2659 H   0  0  0  0  0  0  0  0  0  0  0  0
  -16.3351   -5.3584   16.5135 H   0  0  0  0  0  0  0  0  0  0  0  0
  -17.5524   -9.8431   15.5352 H   0  0  0  0  0  0  0  0  0  0  0  0
  -19.5609   -6.9465   12.5431 H   0  0  0  0  0  0  0  0  0  0  0  0
  -19.8600   -7.8851   14.0527 H   0  0  0  0  0  0  0  0  0  0  0  0
  -21.6720   -7.6600   12.1528 H   0  0  0  0  0  0  0  0  0  0  0  0
  -21.3539   -9.3972   14.3543 H   0  0  0  0  0  0  0  0  0  0  0  0
  -23.4349   -9.1807   14.2645 H   0  0  0  0  0  0  0  0  0  0  0  0
  -20.4870  -11.2918   13.1836 H   0  0  0  0  0  0  0  0  0  0  0  0
  -22.5678  -11.8998   13.9478 H   0  0  0  0  0  0  0  0  0  0  0  0
  -22.1887  -10.8145   10.7367 H   0  0  0  0  0  0  0  0  0  0  0  0
  -18.5830  -11.4195   12.0552 H   0  0  0  0  0  0  0  0  0  0  0  0
  -20.9654  -14.2075    5.0030 H   0  0  0  0  0  0  0  0  0  0  0  0
  -22.4941  -13.9670    4.0909 H   0  0  0  0  0  0  0  0  0  0  0  0
  -21.2369  -12.6840    4.0909 H   0  0  0  0  0  0  0  0  0  0  0  0
  -17.3209  -14.3780    8.6777 H   0  0  0  0  0  0  0  0  0  0  0  0
  -17.5243  -14.2620    6.9091 H   0  0  0  0  0  0  0  0  0  0  0  0
 30 29  1  0
 29 28  1  0
 31 28  2  0
 31 32  1  0
 28 27  1  0
 33 32  1  0
 32 25  2  0
 27 26  2  0
 25 26  1  0
 25 24  1  0
 26 22  1  0
 24 23  2  0
 22 23  1  0
 22 21  1  0
 16 21  1  0
 16 15  1  0
 21 19  1  0
 15 14  1  0
 15 17  1  0
 13 14  1  0
 13 10  1  0
 19 20  1  0
 19 17  1  0
 12 10  2  0
 17 18  1  0
 10  9  1  0
 10 11  1  0
  7  6  2  0
  9  6  1  0
  6  8  1  0
  6  5  1  0
  5  2  1  0
  3  2  2  0
  2  4  1  0
  2  1  1  0
  1 34  1  0
  4 35  1  0
  8 36  1  0
 11 37  1  0
 14 38  1  0
 14 39  1  0
 15 40  1  0
 17 41  1  0
 18 42  1  0
 19 43  1  0
 20 44  1  0
 21 45  1  0
 23 46  1  0
 30 47  1  0
 30 48  1  0
 30 49  1  0
 33 50  1  0
 33 51  1  0
A    1
OAI
A    2
PBE
A    3
OAH
A    4
OAC
A    5
OAS
A    6
PBG
A    7
OAK
A    8
OAE
A    9
OAT
A   10
PBF
A   11
OAJ
A   12
OAD
A   13
O5'
A   14
C5'
A   15
C4'
A   16
O4'
A   17
C3'
A   18
O3'
A   19
C2'
A   20
O2'
A   21
C1'
A   22
N9
A   23
C8
A   24
N7
A   25
C5
A   26
C4
A   27
N3
A   28
C2
A   29
S2
A   30
CAA
A   31
N1
A   32
C6
A   33
N6
M  END
