5SVR_71C_A_405
     RDKit          3D

 69 73  0  0  0  0  0  0  0  0999 V2000
   16.9520  -13.9300  -36.2630 C   0  0  0  0  0  0  0  0  0  0  0  0
   16.2500  -13.1390  -35.3770 C   0  0  0  0  0  0  0  0  0  0  0  0
   17.4950  -12.4590  -39.9130 C   0  0  0  0  0  0  0  0  0  0  0  0
   18.2820  -13.4630  -40.8220 C   0  0  0  0  0  0  0  0  0  0  0  0
   19.5910  -14.0140  -45.3240 C   0  0  0  0  0  0  0  0  0  0  0  0
   18.4690  -15.7770  -46.5290 C   0  0  0  0  0  0  0  0  0  0  0  0
   19.9730  -13.4470  -46.5350 C   0  0  0  0  0  0  0  0  0  0  0  0
   18.7900  -13.0090  -42.0440 C   0  0  0  0  0  0  0  0  0  0  0  0
   18.7880  -12.2070  -37.8330 C   0  0  0  0  0  0  0  0  0  0  0  0
   20.1910  -12.7370  -38.4520 C   0  0  0  0  0  0  0  0  0  0  0  0
   21.1960  -11.6310  -38.5830 C   0  0  0  0  0  0  0  0  0  0  0  0
   21.0050  -10.3040  -38.6180 C   0  0  0  0  0  0  0  0  0  0  0  0
   16.4350  -14.3290  -31.3200 O   0  0  0  0  0  0  0  0  0  0  0  0
   17.3380  -14.5850  -32.1580 C   0  0  0  0  0  0  0  0  0  0  0  0
   18.3850  -15.0890  -31.6770 O   0  0  0  0  0  0  0  0  0  0  0  0
   17.1970  -14.3500  -33.5240 C   0  0  0  0  0  0  0  0  0  0  0  0
   17.9030  -15.1450  -34.4200 C   0  0  0  0  0  0  0  0  0  0  0  0
   17.7930  -14.9430  -35.7880 C   0  0  0  0  0  0  0  0  0  0  0  0
   18.4980  -15.7410  -36.6790 C   0  0  0  0  0  0  0  0  0  0  0  0
   19.7110  -16.0800  -36.6080 O   0  0  0  0  0  0  0  0  0  0  0  0
   18.0530  -16.2700  -37.7310 O   0  0  0  0  0  0  0  0  0  0  0  0
   16.3660  -13.3390  -34.0090 C   0  0  0  0  0  0  0  0  0  0  0  0
   15.5530  -12.4220  -33.0980 C   0  0  0  0  0  0  0  0  0  0  0  0
   14.2970  -12.4460  -32.9870 O   0  0  0  0  0  0  0  0  0  0  0  0
   16.0340  -11.5200  -32.3590 O   0  0  0  0  0  0  0  0  0  0  0  0
   16.7600  -13.6290  -37.7910 C   0  0  0  0  0  0  0  0  0  0  0  0
   15.8320  -14.0800  -38.3770 O   0  0  0  0  0  0  0  0  0  0  0  0
   17.7300  -12.7460  -38.4990 N   0  0  0  0  0  0  0  0  0  0  0  0
   18.4800  -14.7780  -40.4170 C   0  0  0  0  0  0  0  0  0  0  0  0
   19.1930  -15.6550  -41.2480 C   0  0  0  0  0  0  0  0  0  0  0  0
   19.7090  -15.2000  -42.4730 C   0  0  0  0  0  0  0  0  0  0  0  0
   19.4960  -13.8840  -42.8820 C   0  0  0  0  0  0  0  0  0  0  0  0
   20.0110  -13.3580  -44.1170 O   0  0  0  0  0  0  0  0  0  0  0  0
   18.8390  -15.1820  -45.3280 C   0  0  0  0  0  0  0  0  0  0  0  0
   18.8510  -15.2030  -47.7360 C   0  0  0  0  0  0  0  0  0  0  0  0
   19.5970  -14.0380  -47.7380 C   0  0  0  0  0  0  0  0  0  0  0  0
   19.9010   -9.6300  -38.4010 C   0  0  0  0  0  0  0  0  0  0  0  0
   19.3120   -8.2510  -38.3990 C   0  0  0  0  0  0  0  0  0  0  0  0
   18.1270   -7.9440  -38.1190 C   0  0  0  0  0  0  0  0  0  0  0  0
   17.3130   -8.6610  -37.8300 C   0  0  0  0  0  0  0  0  0  0  0  0
   17.4320   -9.8570  -37.7330 C   0  0  0  0  0  0  0  0  0  0  0  0
   18.6360  -10.6010  -37.9630 C   0  0  0  0  0  0  0  0  0  0  0  0
   15.5930  -12.3434  -35.7583 H   0  0  0  0  0  0  0  0  0  0  0  0
   17.8293  -11.4345  -40.1336 H   0  0  0  0  0  0  0  0  0  0  0  0
   16.4198  -12.5636  -40.1203 H   0  0  0  0  0  0  0  0  0  0  0  0
   17.8739  -16.7021  -46.5240 H   0  0  0  0  0  0  0  0  0  0  0  0
   20.5754  -12.5267  -46.5423 H   0  0  0  0  0  0  0  0  0  0  0  0
   18.6352  -11.9633  -42.3481 H   0  0  0  0  0  0  0  0  0  0  0  0
   18.7950  -12.5072  -36.7748 H   0  0  0  0  0  0  0  0  0  0  0  0
   20.0016  -13.1656  -39.4472 H   0  0  0  0  0  0  0  0  0  0  0  0
   20.6025  -13.4932  -37.7673 H   0  0  0  0  0  0  0  0  0  0  0  0
   21.7228  -11.8537  -39.5227 H   0  0  0  0  0  0  0  0  0  0  0  0
   21.6217  -11.6946  -37.5707 H   0  0  0  0  0  0  0  0  0  0  0  0
   21.7208   -9.9034  -37.8851 H   0  0  0  0  0  0  0  0  0  0  0  0
   21.0667  -10.1626  -39.7071 H   0  0  0  0  0  0  0  0  0  0  0  0
   16.6291  -14.3840  -30.3508 H   0  0  0  0  0  0  0  0  0  0  0  0
   18.5566  -15.9437  -34.0395 H   0  0  0  0  0  0  0  0  0  0  0  0
   20.1405  -16.2000  -35.7241 H   0  0  0  0  0  0  0  0  0  0  0  0
   15.9864  -11.6093  -31.3742 H   0  0  0  0  0  0  0  0  0  0  0  0
   18.0811  -15.1278  -39.4534 H   0  0  0  0  0  0  0  0  0  0  0  0
   19.3482  -16.6996  -40.9403 H   0  0  0  0  0  0  0  0  0  0  0  0
   20.2841  -15.8855  -43.1128 H   0  0  0  0  0  0  0  0  0  0  0  0
   18.5343  -15.6391  -44.3750 H   0  0  0  0  0  0  0  0  0  0  0  0
   18.5609  -15.6738  -48.6869 H   0  0  0  0  0  0  0  0  0  0  0  0
   19.8936  -13.5778  -48.6920 H   0  0  0  0  0  0  0  0  0  0  0  0
   19.9860   -7.4250  -38.6702 H   0  0  0  0  0  0  0  0  0  0  0  0
   17.8629   -6.8770  -38.1606 H   0  0  0  0  0  0  0  0  0  0  0  0
   16.3211   -8.2358  -37.6169 H   0  0  0  0  0  0  0  0  0  0  0  0
   16.5378  -10.4278  -37.4423 H   0  0  0  0  0  0  0  0  0  0  0  0
 36 35  1  0
 36  7  2  0
 35  6  2  0
  7  5  1  0
  6 34  1  0
 34  5  2  0
  5 33  1  0
 33 32  1  0
 32 31  1  0
 32  8  2  0
 31 30  2  0
  8  4  1  0
 30 29  1  0
  4 29  2  0
  4  3  1  0
  3 28  1  0
 12 11  1  0
 12 37  1  0
 11 10  1  0
 28  9  1  0
 28 26  1  0
 10  9  1  0
 37 38  1  0
 37 42  2  0
 38 39  2  0
 27 26  2  0
 39 40  1  0
 42  9  1  0
 42 41  1  0
 40 41  2  0
 26  1  1  0
 21 19  2  0
 19 20  1  0
 19 18  1  0
  1 18  1  0
  1  2  2  0
 18 17  2  0
  2 22  1  0
 17 16  1  0
 22 16  2  0
 22 23  1  0
 16 14  1  0
 23 24  2  0
 23 25  1  0
 14 15  2  0
 14 13  1  0
  2 43  1  0
  3 44  1  0
  3 45  1  0
  6 46  1  0
  7 47  1  0
  8 48  1  0
  9 49  1  0
 10 50  1  0
 10 51  1  0
 11 52  1  0
 11 53  1  0
 12 54  1  0
 12 55  1  0
 13 56  1  0
 17 57  1  0
 20 58  1  0
 25 59  1  0
 29 60  1  0
 30 61  1  0
 31 62  1  0
 34 63  1  0
 35 64  1  0
 36 65  1  0
 38 66  1  0
 39 67  1  0
 40 68  1  0
 41 69  1  0
A    1
C10
A    2
C11
A    3
C19
A    4
C20
A    5
C26
A    6
C28
A    7
C31
A    8
C32
A    9
C33
A   10
C34
A   11
C35
A   12
C36
A   13
O01
A   14
C02
A   15
O03
A   16
C04
A   17
C05
A   18
C06
A   19
C07
A   20
O08
A   21
O09
A   22
C12
A   23
C13
A   24
O14
A   25
O15
A   26
C16
A   27
O17
A   28
N18
A   29
C21
A   30
C22
A   31
C23
A   32
C24
A   33
O25
A   34
C27
A   35
C29
A   36
C30
A   37
C37
A   38
C38
A   39
C39
A   40
C40
A   41
C41
A   42
C42
M  END
