5SWP_70V_A_1103
     RDKit          3D

 19 19  0  0  0  0  0  0  0  0999 V2000
   70.9150   44.9640  124.1020 C   0  0  0  0  0  0  0  0  0  0  0  0
   72.2270   44.9460  123.3050 C   0  0  0  0  0  0  0  0  0  0  0  0
   72.0640   45.6980  122.0080 C   0  0  0  0  0  0  0  0  0  0  0  0
   71.6170   44.9740  120.7480 C   0  0  0  0  0  0  0  0  0  0  0  0
   71.1640   43.5370  121.0360 C   0  0  0  0  0  0  0  0  0  0  0  0
   72.1770   42.7360  121.8620 C   0  0  0  0  0  0  0  0  0  0  0  0
   72.7020   43.5340  123.0440 C   0  0  0  0  0  0  0  0  0  0  0  0
   72.3050   46.8950  121.9710 O   0  0  0  0  0  0  0  0  0  0  0  0
   73.5270   43.0270  123.7850 O   0  0  0  0  0  0  0  0  0  0  0  0
   71.1400   44.9609  125.1787 H   0  0  0  0  0  0  0  0  0  0  0  0
   70.3448   45.8701  123.8492 H   0  0  0  0  0  0  0  0  0  0  0  0
   70.3201   44.0739  123.8492 H   0  0  0  0  0  0  0  0  0  0  0  0
   72.9948   45.4470  123.9128 H   0  0  0  0  0  0  0  0  0  0  0  0
   70.7781   45.5270  120.3003 H   0  0  0  0  0  0  0  0  0  0  0  0
   72.4761   44.9266  120.0626 H   0  0  0  0  0  0  0  0  0  0  0  0
   71.0094   43.0208  120.0770 H   0  0  0  0  0  0  0  0  0  0  0  0
   70.2384   43.5994  121.6270 H   0  0  0  0  0  0  0  0  0  0  0  0
   73.0231   42.4592  121.2159 H   0  0  0  0  0  0  0  0  0  0  0  0
   71.6677   41.8428  122.2530 H   0  0  0  0  0  0  0  0  0  0  0  0
  1  2  1  0
  2  7  1  0
  2  3  1  0
  9  7  2  0
  7  6  1  0
  8  3  2  0
  3  4  1  0
  6  5  1  0
  5  4  1  0
  1 10  1  0
  1 11  1  0
  1 12  1  0
  2 13  1  0
  4 14  1  0
  4 15  1  0
  5 16  1  0
  5 17  1  0
  6 18  1  0
  6 19  1  0
A    1
C1
A    2
C2
A    3
C3
A    4
C4
A    5
C5
A    6
C6
A    7
C7
A    8
O8
A    9
O9
M  END
