1BIO_SOA_A_244
     RDKit          3D

 18 18  0  0  0  0  0  0  0  0999 V2000
    5.7960    6.1640    1.3760 C   0  0  0  0  0  0  0  0  0  0  0  0
    4.9310    7.2920    1.3110 C   0  0  0  0  0  0  0  0  0  0  0  0
    3.5380    7.1320    1.5370 C   0  0  0  0  0  0  0  0  0  0  0  0
    3.0040    5.8500    1.8220 C   0  0  0  0  0  0  0  0  0  0  0  0
    5.2520    4.8810    1.6710 C   0  0  0  0  0  0  0  0  0  0  0  0
    3.8540    4.7270    1.8880 C   0  0  0  0  0  0  0  0  0  0  0  0
    5.4260    8.5250    1.0370 N   0  0  0  0  0  0  0  0  0  0  0  0
    7.3320    6.3120    1.1450 C   0  0  0  0  0  0  0  0  0  0  0  0
    8.0200    7.4990    0.7780 O   0  0  0  0  0  0  0  0  0  0  0  0
    2.8712    8.0057    1.4908 H   0  0  0  0  0  0  0  0  0  0  0  0
    1.9237    5.7311    1.9921 H   0  0  0  0  0  0  0  0  0  0  0  0
    5.9153    4.0056    1.7313 H   0  0  0  0  0  0  0  0  0  0  0  0
    3.4370    3.7329    2.1070 H   0  0  0  0  0  0  0  0  0  0  0  0
    5.6810    9.1603    1.8066 H   0  0  0  0  0  0  0  0  0  0  0  0
    5.5468    8.8259    0.0594 H   0  0  0  0  0  0  0  0  0  0  0  0
    7.7954    5.9935    2.0904 H   0  0  0  0  0  0  0  0  0  0  0  0
    7.4306    5.7465    0.2066 H   0  0  0  0  0  0  0  0  0  0  0  0
    8.3008    7.9835    1.5944 H   0  0  0  0  0  0  0  0  0  0  0  0
  1  2  2  0
  1  5  1  0
  1  8  1  0
  2  3  1  0
  2  7  1  0
  3  4  2  0
  4  6  1  0
  5  6  2  0
  8  9  1  0
  3 10  1  0
  4 11  1  0
  5 12  1  0
  6 13  1  0
  7 14  1  0
  7 15  1  0
  8 16  1  0
  8 17  1  0
  9 18  1  0
A    1
C4
A    2
C3
A    3
C2
A    4
C1
A    5
C5
A    6
C6
A    7
N11
A    8
C12
A    9
O1
M  END
