5SXD_71F_B_701
     RDKit          3D

 19 19  0  0  0  0  0  0  0  0999 V2000
   59.2480   44.9740   71.5530 C   0  0  0  0  0  0  0  0  0  0  0  0
   58.5030   44.6400   72.7280 O   0  0  0  0  0  0  0  0  0  0  0  0
   58.3860   45.4780   73.8330 C   0  0  0  0  0  0  0  0  0  0  0  0
   58.5510   44.9520   75.1200 C   0  0  0  0  0  0  0  0  0  0  0  0
   58.4260   45.7850   76.2480 C   0  0  0  0  0  0  0  0  0  0  0  0
   58.1300   47.1450   76.1040 C   0  0  0  0  0  0  0  0  0  0  0  0
   57.9620   47.6770   74.8250 C   0  0  0  0  0  0  0  0  0  0  0  0
   58.0890   46.8500   73.6970 C   0  0  0  0  0  0  0  0  0  0  0  0
   58.8550   43.4820   75.2910 C   0  0  0  0  0  0  0  0  0  0  0  0
   60.0260   43.0600   75.1440 O   0  0  0  0  0  0  0  0  0  0  0  0
   57.9170   42.7010   75.5600 O   0  0  0  0  0  0  0  0  0  0  0  0
   60.2161   45.4080   71.8437 H   0  0  0  0  0  0  0  0  0  0  0  0
   59.4178   44.0658   70.9560 H   0  0  0  0  0  0  0  0  0  0  0  0
   58.6829   45.7049   70.9560 H   0  0  0  0  0  0  0  0  0  0  0  0
   58.5626   45.3619   77.2541 H   0  0  0  0  0  0  0  0  0  0  0  0
   58.0307   47.7886   76.9905 H   0  0  0  0  0  0  0  0  0  0  0  0
   57.7299   48.7450   74.7001 H   0  0  0  0  0  0  0  0  0  0  0  0
   57.9549   47.2786   72.6928 H   0  0  0  0  0  0  0  0  0  0  0  0
   57.6873   42.5098   76.5038 H   0  0  0  0  0  0  0  0  0  0  0  0
  1  2  1  0
  2  3  1  0
  8  3  2  0
  8  7  1  0
  3  4  1  0
  7  6  2  0
  4  9  1  0
  4  5  2  0
 10  9  2  0
  9 11  1  0
  6  5  1  0
  1 12  1  0
  1 13  1  0
  1 14  1  0
  5 15  1  0
  6 16  1  0
  7 17  1  0
  8 18  1  0
 11 19  1  0
A    1
C1
A    2
O1
A    3
C2
A    4
C3
A    5
C4
A    6
C5
A    7
C6
A    8
C7
A    9
C8
A   10
O9
A   11
O11
M  END
