5SXI_71J_B_701
     RDKit          3D

 20 20  0  0  0  0  0  0  0  0999 V2000
   56.1590   43.7530   73.2910 O   0  0  0  0  0  0  0  0  0  0  0  0
   58.3560   43.9990   76.3360 C   0  0  0  0  0  0  0  0  0  0  0  0
   57.2540   43.4690   75.4180 C   0  0  0  0  0  0  0  0  0  0  0  0
   58.5480   45.5010   76.1240 C   0  0  0  0  0  0  0  0  0  0  0  0
   59.4690   46.0710   77.0780 O   0  0  0  0  0  0  0  0  0  0  0  0
   59.0490   45.6930   74.6910 C   0  0  0  0  0  0  0  0  0  0  0  0
   58.0370   45.2050   73.6530 C   0  0  0  0  0  0  0  0  0  0  0  0
   57.4450   43.8150   73.9300 C   0  0  0  0  0  0  0  0  0  0  0  0
   55.4493   43.7188   73.9804 H   0  0  0  0  0  0  0  0  0  0  0  0
   58.0759   43.8134   77.3834 H   0  0  0  0  0  0  0  0  0  0  0  0
   59.2975   43.4815   76.0998 H   0  0  0  0  0  0  0  0  0  0  0  0
   56.2955   43.8945   75.7499 H   0  0  0  0  0  0  0  0  0  0  0  0
   57.2845   42.3719   75.4917 H   0  0  0  0  0  0  0  0  0  0  0  0
   57.5938   46.0258   76.2795 H   0  0  0  0  0  0  0  0  0  0  0  0
   59.1550   45.8767   77.9965 H   0  0  0  0  0  0  0  0  0  0  0  0
   59.9851   45.1293   74.5649 H   0  0  0  0  0  0  0  0  0  0  0  0
   59.2043   46.7700   74.5298 H   0  0  0  0  0  0  0  0  0  0  0  0
   58.5391   45.1737   72.6748 H   0  0  0  0  0  0  0  0  0  0  0  0
   57.1945   45.9114   73.6879 H   0  0  0  0  0  0  0  0  0  0  0  0
   58.1699   43.0858   73.5390 H   0  0  0  0  0  0  0  0  0  0  0  0
  1  8  1  0
  7  8  1  0
  7  6  1  0
  8  3  1  0
  6  4  1  0
  3  2  1  0
  4  2  1  0
  4  5  1  0
  1  9  1  0
  2 10  1  0
  2 11  1  0
  3 12  1  0
  3 13  1  0
  4 14  1  0
  5 15  1  0
  6 16  1  0
  6 17  1  0
  7 18  1  0
  7 19  1  0
  8 20  1  0
A    1
O
A    2
C1
A    3
C
A    4
C2
A    5
O1
A    6
C3
A    7
C4
A    8
C5
M  END
