5SY3_74Z_A_402
     RDKit          3D

 35 38  0  0  0  0  0  0  0  0999 V2000
  -13.2740   16.5530   -5.5320 C   0  0  0  0  0  0  0  0  0  0  0  0
  -13.9770   18.7580   -5.7410 C   0  0  0  0  0  0  0  0  0  0  0  0
  -16.1580   22.1500   -5.3890 C   0  0  0  0  0  0  0  0  0  0  0  0
  -17.2560   19.7270   -3.9690 C   0  0  0  0  0  0  0  0  0  0  0  0
  -15.1070   18.4990   -4.9450 C   0  0  0  0  0  0  0  0  0  0  0  0
  -18.9270   15.5390   -3.6680 C   0  0  0  0  0  0  0  0  0  0  0  0
  -16.4890   15.5960   -2.9290 C   0  0  0  0  0  0  0  0  0  0  0  0
  -16.3430   16.8480   -3.6650 N   0  0  0  0  0  0  0  0  0  0  0  0
  -15.2490   17.1620   -4.4560 C   0  0  0  0  0  0  0  0  0  0  0  0
  -14.3220   16.2490   -4.7760 N   0  0  0  0  0  0  0  0  0  0  0  0
  -13.0950   17.7720   -6.0070 N   0  0  0  0  0  0  0  0  0  0  0  0
  -13.9890   20.4370   -6.2380 S   0  0  0  0  0  0  0  0  0  0  0  0
  -15.4830   20.7800   -5.3920 C   0  0  0  0  0  0  0  0  0  0  0  0
  -17.3900   22.1810   -4.4640 C   0  0  0  0  0  0  0  0  0  0  0  0
  -18.1620   20.8510   -4.4920 C   0  0  0  0  0  0  0  0  0  0  0  0
  -15.9530   19.6880   -4.7700 C   0  0  0  0  0  0  0  0  0  0  0  0
  -17.9530   15.2680   -2.7810 C   0  0  0  0  0  0  0  0  0  0  0  0
  -20.1250   15.0510   -3.1060 C   0  0  0  0  0  0  0  0  0  0  0  0
  -19.8190   14.5040   -1.9170 C   0  0  0  0  0  0  0  0  0  0  0  0
  -18.5000   14.6450   -1.7200 O   0  0  0  0  0  0  0  0  0  0  0  0
  -12.5374   15.7710   -5.7683 H   0  0  0  0  0  0  0  0  0  0  0  0
  -15.4342   22.9024   -5.0427 H   0  0  0  0  0  0  0  0  0  0  0  0
  -16.4951   22.3664   -6.4135 H   0  0  0  0  0  0  0  0  0  0  0  0
  -17.7756   18.7629   -4.0719 H   0  0  0  0  0  0  0  0  0  0  0  0
  -17.0230   19.9148   -2.9105 H   0  0  0  0  0  0  0  0  0  0  0  0
  -18.8120   16.0418   -4.6396 H   0  0  0  0  0  0  0  0  0  0  0  0
  -15.9856   14.7868   -3.4784 H   0  0  0  0  0  0  0  0  0  0  0  0
  -16.0342   15.7010   -1.9329 H   0  0  0  0  0  0  0  0  0  0  0  0
  -17.1007   17.5419   -3.5920 H   0  0  0  0  0  0  0  0  0  0  0  0
  -17.0567   22.3771   -3.4342 H   0  0  0  0  0  0  0  0  0  0  0  0
  -18.0640   22.9739   -4.8205 H   0  0  0  0  0  0  0  0  0  0  0  0
  -19.0543   20.9306   -3.8537 H   0  0  0  0  0  0  0  0  0  0  0  0
  -18.4704   20.6257   -5.5236 H   0  0  0  0  0  0  0  0  0  0  0  0
  -21.1263   15.1077   -3.5579 H   0  0  0  0  0  0  0  0  0  0  0  0
  -20.5273   14.0241   -1.2257 H   0  0  0  0  0  0  0  0  0  0  0  0
 12  2  1  0
 12 13  1  0
 11  2  1  0
 11  1  2  0
  2  5  2  0
  1 10  1  0
 13  3  1  0
 13 16  2  0
  3 14  1  0
  5 16  1  0
  5  9  1  0
 10  9  2  0
 16  4  1  0
 15 14  1  0
 15  4  1  0
  9  8  1  0
  6 18  1  0
  6 17  2  0
  8  7  1  0
 18 19  2  0
  7 17  1  0
 17 20  1  0
 19 20  1  0
  1 21  1  0
  3 22  1  0
  3 23  1  0
  4 24  1  0
  4 25  1  0
  6 26  1  0
  7 27  1  0
  7 28  1  0
  8 29  1  0
 14 30  1  0
 14 31  1  0
 15 32  1  0
 15 33  1  0
 18 34  1  0
 19 35  1  0
A    1
C5
A    2
C7
A    3
C10
A    4
C13
A    5
C15
A    6
C17
A    7
C1
A    8
N2
A    9
C3
A   10
N4
A   11
N6
A   12
S8
A   13
C9
A   14
C11
A   15
C12
A   16
C14
A   17
C16
A   18
C18
A   19
C19
A   20
O20
M  END
