5SYM_71Q_A_301
     RDKit          3D

 45 47  0  0  0  0  0  0  0  0999 V2000
   -8.5090  -10.6180   -2.6570 N   0  0  0  0  0  0  0  0  0  0  0  0
  -13.5370  -14.4100   -1.6620 C   0  0  0  0  0  0  0  0  0  0  0  0
   -8.2050   -8.2490   -4.1910 N   0  0  0  0  0  0  0  0  0  0  0  0
  -13.8960  -15.8220   -1.3180 C   0  0  0  0  0  0  0  0  0  0  0  0
   -7.6350   -9.5410   -2.2050 C   0  0  0  0  0  0  0  0  0  0  0  0
   -8.1320  -11.9010   -2.0750 C   0  0  0  0  0  0  0  0  0  0  0  0
   -9.3020  -12.8650   -2.0140 C   0  0  0  0  0  0  0  0  0  0  0  0
  -11.8460  -12.7210   -2.1080 C   0  0  0  0  0  0  0  0  0  0  0  0
  -12.2000  -14.0400   -1.8150 C   0  0  0  0  0  0  0  0  0  0  0  0
   -8.1410   -8.2210   -2.7260 C   0  0  0  0  0  0  0  0  0  0  0  0
   -7.7540   -7.2540   -6.4040 C   0  0  0  0  0  0  0  0  0  0  0  0
   -8.0070   -6.3030   -7.3390 C   0  0  0  0  0  0  0  0  0  0  0  0
   -7.6990   -6.8840   -8.6030 C   0  0  0  0  0  0  0  0  0  0  0  0
   -7.2860   -8.1230   -8.3680 C   0  0  0  0  0  0  0  0  0  0  0  0
   -8.9900   -9.3760   -4.7030 C   0  0  0  0  0  0  0  0  0  0  0  0
   -8.4890  -10.6750   -4.1180 C   0  0  0  0  0  0  0  0  0  0  0  0
  -10.5080  -12.2770   -2.2030 N   0  0  0  0  0  0  0  0  0  0  0  0
  -12.8700  -11.7810   -2.2660 C   0  0  0  0  0  0  0  0  0  0  0  0
   -7.3090   -8.3970   -7.0190 O   0  0  0  0  0  0  0  0  0  0  0  0
  -12.4800  -10.1380   -2.6860 Cl  0  0  0  0  0  0  0  0  0  0  0  0
  -14.1970  -12.1390   -2.1200 C   0  0  0  0  0  0  0  0  0  0  0  0
   -7.4770   -6.1390   -4.3890 O   0  0  0  0  0  0  0  0  0  0  0  0
  -14.5260  -13.4480   -1.8220 C   0  0  0  0  0  0  0  0  0  0  0  0
   -9.1240  -14.0590   -1.7950 O   0  0  0  0  0  0  0  0  0  0  0  0
   -7.7780   -7.1990   -4.9210 C   0  0  0  0  0  0  0  0  0  0  0  0
  -13.1880  -16.7240   -1.9980 F   0  0  0  0  0  0  0  0  0  0  0  0
  -13.7250  -16.1040   -0.0270 F   0  0  0  0  0  0  0  0  0  0  0  0
  -15.1710  -16.1150   -1.5630 F   0  0  0  0  0  0  0  0  0  0  0  0
   -6.6160   -9.7155   -2.5807 H   0  0  0  0  0  0  0  0  0  0  0  0
   -7.6255   -9.5180   -1.1053 H   0  0  0  0  0  0  0  0  0  0  0  0
   -7.3354  -12.3482   -2.6877 H   0  0  0  0  0  0  0  0  0  0  0  0
   -7.7888  -11.7188   -1.0459 H   0  0  0  0  0  0  0  0  0  0  0  0
  -11.4122  -14.7995   -1.7030 H   0  0  0  0  0  0  0  0  0  0  0  0
   -7.4597   -7.4185   -2.4068 H   0  0  0  0  0  0  0  0  0  0  0  0
   -9.1487   -8.0378   -2.3249 H   0  0  0  0  0  0  0  0  0  0  0  0
   -8.3773   -5.2834   -7.1566 H   0  0  0  0  0  0  0  0  0  0  0  0
   -7.7868   -6.3982   -9.5860 H   0  0  0  0  0  0  0  0  0  0  0  0
   -6.9686   -8.8341   -9.1450 H   0  0  0  0  0  0  0  0  0  0  0  0
  -10.0458   -9.2375   -4.4270 H   0  0  0  0  0  0  0  0  0  0  0  0
   -8.8875   -9.4144   -5.7975 H   0  0  0  0  0  0  0  0  0  0  0  0
   -9.1349  -11.4982   -4.4574 H   0  0  0  0  0  0  0  0  0  0  0  0
   -7.4551  -10.8422   -4.4542 H   0  0  0  0  0  0  0  0  0  0  0  0
  -10.4327  -11.2869   -2.4766 H   0  0  0  0  0  0  0  0  0  0  0  0
  -14.9886  -11.3848   -2.2406 H   0  0  0  0  0  0  0  0  0  0  0  0
  -15.5831  -13.7311   -1.7103 H   0  0  0  0  0  0  0  0  0  0  0  0
 13 14  2  0
 13 12  1  0
 14 19  1  0
 12 11  2  0
 19 11  1  0
 11 25  1  0
 25 22  2  0
 25  3  1  0
 15  3  1  0
 15 16  1  0
  3 10  1  0
 16  1  1  0
 10  5  1  0
 20 18  1  0
  1  5  1  0
  1  6  1  0
 18  8  2  0
 18 21  1  0
 17  8  1  0
 17  7  1  0
  8  9  1  0
 21 23  2  0
  6  7  1  0
  7 24  2  0
 26  4  1  0
  9  2  2  0
 23  2  1  0
  2  4  1  0
 28  4  1  0
  4 27  1  0
  5 29  1  0
  5 30  1  0
  6 31  1  0
  6 32  1  0
  9 33  1  0
 10 34  1  0
 10 35  1  0
 12 36  1  0
 13 37  1  0
 14 38  1  0
 15 39  1  0
 15 40  1  0
 16 41  1  0
 16 42  1  0
 17 43  1  0
 21 44  1  0
 23 45  1  0
A    1
N1
A    2
C3
A    3
N2
A    4
C4
A    5
C9
A    6
C8
A    7
C7
A    8
C6
A    9
C5
A   10
C10
A   11
C12
A   12
C13
A   13
C14
A   14
C15
A   15
C16
A   16
C17
A   17
N
A   18
C
A   19
O
A   20
CL
A   21
C1
A   22
O1
A   23
C2
A   24
O2
A   25
C11
A   26
F
A   27
F1
A   28
F2
M  END
