5T0L_73X_A_704
     RDKit          3D

 38 40  0  0  0  0  0  0  0  0999 V2000
   31.3030   93.3190  -70.4620 C   0  0  0  0  0  0  0  0  0  0  0  0
   31.6510   94.8910  -72.1920 C   0  0  0  0  0  0  0  0  0  0  0  0
   41.4770   96.1430  -73.8110 Cl  0  0  0  0  0  0  0  0  0  0  0  0
   39.7150   96.4530  -73.7950 C   0  0  0  0  0  0  0  0  0  0  0  0
   38.8180   95.4840  -74.2310 C   0  0  0  0  0  0  0  0  0  0  0  0
   39.2690   97.6800  -73.3410 C   0  0  0  0  0  0  0  0  0  0  0  0
   40.4890   98.8730  -72.8010 Cl  0  0  0  0  0  0  0  0  0  0  0  0
   37.9130   97.9830  -73.3050 C   0  0  0  0  0  0  0  0  0  0  0  0
   37.0030   97.0240  -73.7390 C   0  0  0  0  0  0  0  0  0  0  0  0
   37.4590   95.7780  -74.1920 C   0  0  0  0  0  0  0  0  0  0  0  0
   35.6280   97.2810  -73.6930 N   0  0  0  0  0  0  0  0  0  0  0  0
   35.0380   98.1220  -72.6660 C   0  0  0  0  0  0  0  0  0  0  0  0
   34.3160   97.1550  -71.7130 C   0  0  0  0  0  0  0  0  0  0  0  0
   33.8620   95.9260  -72.3920 N   0  0  0  0  0  0  0  0  0  0  0  0
   34.3190   95.4640  -73.7090 C   0  0  0  0  0  0  0  0  0  0  0  0
   34.7210   96.6300  -74.6020 C   0  0  0  0  0  0  0  0  0  0  0  0
   32.9610   95.0610  -71.7450 C   0  0  0  0  0  0  0  0  0  0  0  0
   31.1780   95.5840  -73.2610 N   0  0  0  0  0  0  0  0  0  0  0  0
   30.8470   94.0210  -71.5330 N   0  0  0  0  0  0  0  0  0  0  0  0
   30.4970   92.4480  -69.8050 N   0  0  0  0  0  0  0  0  0  0  0  0
   32.5740   93.4720  -70.0310 N   0  0  0  0  0  0  0  0  0  0  0  0
   33.4040   94.3180  -70.6490 C   0  0  0  0  0  0  0  0  0  0  0  0
   39.1741   94.5098  -74.5974 H   0  0  0  0  0  0  0  0  0  0  0  0
   37.5662   98.9613  -72.9407 H   0  0  0  0  0  0  0  0  0  0  0  0
   36.7313   95.0217  -74.5214 H   0  0  0  0  0  0  0  0  0  0  0  0
   35.8195   98.6798  -72.1292 H   0  0  0  0  0  0  0  0  0  0  0  0
   34.3500   98.8670  -73.0921 H   0  0  0  0  0  0  0  0  0  0  0  0
   35.0066   96.8762  -70.9035 H   0  0  0  0  0  0  0  0  0  0  0  0
   33.4253   97.6709  -71.3250 H   0  0  0  0  0  0  0  0  0  0  0  0
   33.5044   94.9065  -74.1945 H   0  0  0  0  0  0  0  0  0  0  0  0
   35.2003   94.8223  -73.5624 H   0  0  0  0  0  0  0  0  0  0  0  0
   35.2229   96.2956  -75.5219 H   0  0  0  0  0  0  0  0  0  0  0  0
   33.8964   97.2494  -74.9846 H   0  0  0  0  0  0  0  0  0  0  0  0
   30.6032   96.4262  -73.1154 H   0  0  0  0  0  0  0  0  0  0  0  0
   31.3943   95.2671  -74.2169 H   0  0  0  0  0  0  0  0  0  0  0  0
   30.4844   92.4344  -68.7752 H   0  0  0  0  0  0  0  0  0  0  0  0
   29.8975   91.8002  -70.3359 H   0  0  0  0  0  0  0  0  0  0  0  0
   34.4389   94.4292  -70.2932 H   0  0  0  0  0  0  0  0  0  0  0  0
 16 15  1  0
 16 11  1  0
  5 10  1  0
  5  4  2  0
 10  9  2  0
  3  4  1  0
  4  6  1  0
  9 11  1  0
  9  8  1  0
 15 14  1  0
 11 12  1  0
  6  8  2  0
  6  7  1  0
 18  2  1  0
 12 13  1  0
 14 17  1  0
 14 13  1  0
  2 17  2  0
  2 19  1  0
 17 22  1  0
 19  1  2  0
 22 21  2  0
  1 21  1  0
  1 20  1  0
  5 23  1  0
  8 24  1  0
 10 25  1  0
 12 26  1  0
 12 27  1  0
 13 28  1  0
 13 29  1  0
 15 30  1  0
 15 31  1  0
 16 32  1  0
 16 33  1  0
 18 34  1  0
 18 35  1  0
 20 36  1  0
 20 37  1  0
 22 38  1  0
A    1
C12
A    2
C13
A    3
CL1
A    4
C2
A    5
C1
A    6
C3
A    7
CL
A    8
C4
A    9
C5
A   10
C
A   11
N
A   12
C9
A   13
C8
A   14
N1
A   15
C7
A   16
C6
A   17
C10
A   18
N4
A   19
N3
A   20
N5
A   21
N2
A   22
C11
M  END
