5T18_73T_A_701
     RDKit          3D

 72 77  0  0  0  0  0  0  0  0999 V2000
    6.4470  -14.3660   -4.4500 C   0  0  0  0  0  0  0  0  0  0  0  0
    6.9920  -12.1990   -1.9470 C   0  0  0  0  0  0  0  0  0  0  0  0
    1.2090  -12.7520   -1.4180 C   0  0  0  0  0  0  0  0  0  0  0  0
    7.7530  -13.1520   -1.2620 C   0  0  0  0  0  0  0  0  0  0  0  0
    9.1720  -13.0850   -1.3430 C   0  0  0  0  0  0  0  0  0  0  0  0
    9.7890  -12.0890   -2.0370 C   0  0  0  0  0  0  0  0  0  0  0  0
    8.9940  -11.1330   -2.7040 C   0  0  0  0  0  0  0  0  0  0  0  0
    7.5860  -11.1830   -2.6640 C   0  0  0  0  0  0  0  0  0  0  0  0
    5.2580  -16.2720   -5.6080 C   0  0  0  0  0  0  0  0  0  0  0  0
    6.1660  -15.0550   -5.7660 C   0  0  0  0  0  0  0  0  0  0  0  0
   10.7720   -9.3460   -6.8470 C   0  0  0  0  0  0  0  0  0  0  0  0
   11.3920   -8.3050   -7.5340 C   0  0  0  0  0  0  0  0  0  0  0  0
    3.3740  -13.3320   -2.5050 C   0  0  0  0  0  0  0  0  0  0  0  0
    4.8080  -13.2240   -2.7320 C   0  0  0  0  0  0  0  0  0  0  0  0
    5.5210  -12.3640   -1.9080 C   0  0  0  0  0  0  0  0  0  0  0  0
    4.7840  -11.6280   -0.9500 C   0  0  0  0  0  0  0  0  0  0  0  0
    3.4200  -11.7060   -0.7550 C   0  0  0  0  0  0  0  0  0  0  0  0
    2.6720  -12.6030   -1.5480 C   0  0  0  0  0  0  0  0  0  0  0  0
    2.8760  -14.2670   -3.4020 N   0  0  0  0  0  0  0  0  0  0  0  0
    3.9790  -14.7410   -4.1490 C   0  0  0  0  0  0  0  0  0  0  0  0
    5.1500  -14.0970   -3.7630 C   0  0  0  0  0  0  0  0  0  0  0  0
    3.8690  -15.7880   -5.1820 C   0  0  0  0  0  0  0  0  0  0  0  0
    5.2360  -17.1840   -6.8510 C   0  0  0  0  0  0  0  0  0  0  0  0
    0.6550  -13.7620   -1.9160 O   0  0  0  0  0  0  0  0  0  0  0  0
    0.4730  -11.9430   -0.6660 N   0  0  0  0  0  0  0  0  0  0  0  0
    6.5650  -17.7660   -6.9640 O   0  0  0  0  0  0  0  0  0  0  0  0
    9.6760  -10.0950   -3.4300 N   0  0  0  0  0  0  0  0  0  0  0  0
   10.0940   -8.9900   -2.6710 C   0  0  0  0  0  0  0  0  0  0  0  0
   10.8080   -7.9790   -3.3800 N   0  0  0  0  0  0  0  0  0  0  0  0
   10.9640   -8.0330   -4.7580 C   0  0  0  0  0  0  0  0  0  0  0  0
   10.5520   -9.2000   -5.4760 C   0  0  0  0  0  0  0  0  0  0  0  0
    9.8850  -10.3020   -4.7750 C   0  0  0  0  0  0  0  0  0  0  0  0
   11.5880   -6.9990   -5.5270 C   0  0  0  0  0  0  0  0  0  0  0  0
   11.7990   -7.1680   -6.8860 C   0  0  0  0  0  0  0  0  0  0  0  0
   11.9230   -5.8520   -4.9850 F   0  0  0  0  0  0  0  0  0  0  0  0
    9.9030   -8.8900   -1.4870 O   0  0  0  0  0  0  0  0  0  0  0  0
    9.5320  -11.3530   -5.2960 O   0  0  0  0  0  0  0  0  0  0  0  0
    5.4330  -10.7340   -0.1540 F   0  0  0  0  0  0  0  0  0  0  0  0
    4.2620  -18.3410   -6.6820 C   0  0  0  0  0  0  0  0  0  0  0  0
    4.9350  -16.4190   -8.1310 C   0  0  0  0  0  0  0  0  0  0  0  0
    6.7530  -10.1320   -3.3530 C   0  0  0  0  0  0  0  0  0  0  0  0
   11.4520   -6.9370   -2.5720 C   0  0  0  0  0  0  0  0  0  0  0  0
    7.0723  -15.0146   -3.8189 H   0  0  0  0  0  0  0  0  0  0  0  0
    6.9791  -13.4200   -4.6289 H   0  0  0  0  0  0  0  0  0  0  0  0
    7.2629  -13.9397   -0.6709 H   0  0  0  0  0  0  0  0  0  0  0  0
    9.7800  -13.8496   -0.8372 H   0  0  0  0  0  0  0  0  0  0  0  0
   10.8867  -12.0308   -2.0769 H   0  0  0  0  0  0  0  0  0  0  0  0
    5.6653  -16.9228   -4.8203 H   0  0  0  0  0  0  0  0  0  0  0  0
    7.1208  -15.3820   -6.2037 H   0  0  0  0  0  0  0  0  0  0  0  0
    5.6481  -14.3344   -6.4160 H   0  0  0  0  0  0  0  0  0  0  0  0
   10.4629  -10.2617   -7.3723 H   0  0  0  0  0  0  0  0  0  0  0  0
   11.5582   -8.3972   -8.6175 H   0  0  0  0  0  0  0  0  0  0  0  0
    2.9253  -11.0815    0.0035 H   0  0  0  0  0  0  0  0  0  0  0  0
    1.8935  -14.5589   -3.5037 H   0  0  0  0  0  0  0  0  0  0  0  0
    3.3445  -15.3782   -6.0578 H   0  0  0  0  0  0  0  0  0  0  0  0
    3.3086  -16.6387   -4.7669 H   0  0  0  0  0  0  0  0  0  0  0  0
    0.5275  -12.0029    0.3608 H   0  0  0  0  0  0  0  0  0  0  0  0
   -0.1527  -11.2553   -1.1092 H   0  0  0  0  0  0  0  0  0  0  0  0
    6.9328  -17.9271   -6.0591 H   0  0  0  0  0  0  0  0  0  0  0  0
   12.3032   -6.3738   -7.4561 H   0  0  0  0  0  0  0  0  0  0  0  0
    4.1015  -18.5317   -5.6106 H   0  0  0  0  0  0  0  0  0  0  0  0
    3.3031  -18.0854   -7.1566 H   0  0  0  0  0  0  0  0  0  0  0  0
    4.6773  -19.2422   -7.1566 H   0  0  0  0  0  0  0  0  0  0  0  0
    4.5429  -15.4226   -7.8791 H   0  0  0  0  0  0  0  0  0  0  0  0
    5.8580  -16.3118   -8.7197 H   0  0  0  0  0  0  0  0  0  0  0  0
    4.1864  -16.9695   -8.7197 H   0  0  0  0  0  0  0  0  0  0  0  0
    6.2560   -9.5050   -2.5981 H   0  0  0  0  0  0  0  0  0  0  0  0
    7.4015   -9.5042   -3.9818 H   0  0  0  0  0  0  0  0  0  0  0  0
    5.9937  -10.6200   -3.9818 H   0  0  0  0  0  0  0  0  0  0  0  0
   11.3127   -7.1624   -1.5044 H   0  0  0  0  0  0  0  0  0  0  0  0
   12.5270   -6.9059   -2.8030 H   0  0  0  0  0  0  0  0  0  0  0  0
   10.9990   -5.9616   -2.8030 H   0  0  0  0  0  0  0  0  0  0  0  0
 40 23  1  0
 12 34  1  0
 12 11  2  0
 26 23  1  0
 34 33  2  0
 23 39  1  0
 23  9  1  0
 11 31  1  0
 10  9  1  0
 10  1  1  0
  9 22  1  0
 33 35  1  0
 33 30  1  0
 31 32  1  0
 31 30  2  0
 37 32  2  0
 22 20  1  0
 32 27  1  0
 30 29  1  0
  1 21  1  0
 20 21  2  0
 20 19  1  0
 21 14  1  0
 27  7  1  0
 27 28  1  0
 19 13  1  0
 29 28  1  0
 29 42  1  0
 41  8  1  0
 14 13  2  0
 14 15  1  0
  7  8  2  0
  7  6  1  0
 28 36  2  0
  8  2  1  0
 13 18  1  0
  6  5  2  0
  2 15  1  0
  2  4  2  0
 24  3  2  0
 15 16  2  0
 18  3  1  0
 18 17  2  0
  3 25  1  0
  5  4  1  0
 16 17  1  0
 16 38  1  0
  1 43  1  0
  1 44  1  0
  4 45  1  0
  5 46  1  0
  6 47  1  0
  9 48  1  0
 10 49  1  0
 10 50  1  0
 11 51  1  0
 12 52  1  0
 17 53  1  0
 19 54  1  0
 22 55  1  0
 22 56  1  0
 25 57  1  0
 25 58  1  0
 26 59  1  0
 34 60  1  0
 39 61  1  0
 39 62  1  0
 39 63  1  0
 40 64  1  0
 40 65  1  0
 40 66  1  0
 41 67  1  0
 41 68  1  0
 41 69  1  0
 42 70  1  0
 42 71  1  0
 42 72  1  0
A    1
C13
A    2
C18
A    3
C15
A    4
C19
A    5
C20
A    6
C21
A    7
C22
A    8
C23
A    9
C11
A   10
C12
A   11
C34
A   12
C33
A   13
C1
A   14
C2
A   15
C3
A   16
C4
A   17
C5
A   18
C6
A   19
N7
A   20
C8
A   21
C9
A   22
C10
A   23
C14
A   24
O16
A   25
N17
A   26
O24
A   27
N25
A   28
C26
A   29
N27
A   30
C28
A   31
C29
A   32
C30
A   33
C31
A   34
C32
A   35
F35
A   36
O36
A   37
O37
A   38
F38
A   39
C39
A   40
C40
A   41
C41
A   42
C42
M  END
