5T1S_76Q_A_9901
     RDKit          3D

 60 63  0  0  0  0  0  0  0  0999 V2000
   31.1990    4.5750   -7.8900 N   0  0  0  0  0  0  0  0  0  0  0  0
   30.4410    4.8010   -6.8430 C   0  0  0  0  0  0  0  0  0  0  0  0
   29.9610    6.0090   -6.3640 C   0  0  0  0  0  0  0  0  0  0  0  0
   30.3760    7.2350   -7.1820 C   0  0  0  0  0  0  0  0  0  0  0  0
   31.2190    6.9830   -8.3390 C   0  0  0  0  0  0  0  0  0  0  0  0
   31.6340    5.6530   -8.6080 C   0  0  0  0  0  0  0  0  0  0  0  0
   31.6620    8.0230   -9.2300 C   0  0  0  0  0  0  0  0  0  0  0  0
   32.5120    7.7510  -10.3140 C   0  0  0  0  0  0  0  0  0  0  0  0
   32.8900    6.4240  -10.5330 C   0  0  0  0  0  0  0  0  0  0  0  0
   32.4900    5.4120   -9.7090 C   0  0  0  0  0  0  0  0  0  0  0  0
   29.0630    6.0080   -5.1680 C   0  0  0  0  0  0  0  0  0  0  0  0
   29.9670    8.6860   -6.8980 C   0  0  0  0  0  0  0  0  0  0  0  0
   33.0110    8.8530  -11.2010 C   0  0  0  0  0  0  0  0  0  0  0  0
   27.7830    6.5480   -5.2520 C   0  0  0  0  0  0  0  0  0  0  0  0
   26.9320    6.5900   -4.1530 C   0  0  0  0  0  0  0  0  0  0  0  0
   27.3360    5.9850   -2.9860 C   0  0  0  0  0  0  0  0  0  0  0  0
   28.5600    5.3720   -2.8680 C   0  0  0  0  0  0  0  0  0  0  0  0
   29.3960    5.3390   -3.9850 C   0  0  0  0  0  0  0  0  0  0  0  0
   25.5940    7.2650   -4.2300 C   0  0  0  0  0  0  0  0  0  0  0  0
   28.9810    4.7840   -1.5500 C   0  0  0  0  0  0  0  0  0  0  0  0
   29.6930    8.9550   -5.4280 C   0  0  0  0  0  0  0  0  0  0  0  0
   30.1610   10.2280   -4.8090 C   0  0  0  0  0  0  0  0  0  0  0  0
   29.0410   11.2110   -4.5620 C   0  0  0  0  0  0  0  0  0  0  0  0
   27.9210   10.5290   -3.8440 N   0  0  0  0  0  0  0  0  0  0  0  0
   26.8980   11.4420   -3.3250 C   0  0  0  0  0  0  0  0  0  0  0  0
   32.2350    9.9640  -11.5100 C   0  0  0  0  0  0  0  0  0  0  0  0
   32.6370   10.9660  -12.2990 N   0  0  0  0  0  0  0  0  0  0  0  0
   33.8600   10.8840  -12.8340 C   0  0  0  0  0  0  0  0  0  0  0  0
   34.7220    9.8110  -12.6120 C   0  0  0  0  0  0  0  0  0  0  0  0
   34.2850    8.7880  -11.7780 C   0  0  0  0  0  0  0  0  0  0  0  0
   35.9760    9.7750  -13.1720 O   0  0  0  0  0  0  0  0  0  0  0  0
   30.1469    3.9107   -6.2678 H   0  0  0  0  0  0  0  0  0  0  0  0
   31.3264    9.0563   -9.0575 H   0  0  0  0  0  0  0  0  0  0  0  0
   33.5297    6.1874  -11.3961 H   0  0  0  0  0  0  0  0  0  0  0  0
   32.8403    4.3878   -9.9048 H   0  0  0  0  0  0  0  0  0  0  0  0
   30.7797    9.3493   -7.2290 H   0  0  0  0  0  0  0  0  0  0  0  0
   29.0309    8.8741   -7.4442 H   0  0  0  0  0  0  0  0  0  0  0  0
   27.4350    6.9526   -6.2139 H   0  0  0  0  0  0  0  0  0  0  0  0
   26.6580    5.9920   -2.1198 H   0  0  0  0  0  0  0  0  0  0  0  0
   30.3385    4.7740   -3.9343 H   0  0  0  0  0  0  0  0  0  0  0  0
   25.2196    7.4539   -3.2131 H   0  0  0  0  0  0  0  0  0  0  0  0
   25.6954    8.2198   -4.7667 H   0  0  0  0  0  0  0  0  0  0  0  0
   24.8863    6.6161   -4.7667 H   0  0  0  0  0  0  0  0  0  0  0  0
   28.5544    5.3799   -0.7297 H   0  0  0  0  0  0  0  0  0  0  0  0
   28.6181    3.7481   -1.4780 H   0  0  0  0  0  0  0  0  0  0  0  0
   30.0786    4.7938   -1.4780 H   0  0  0  0  0  0  0  0  0  0  0  0
   28.6016    8.9184   -5.2953 H   0  0  0  0  0  0  0  0  0  0  0  0
   30.2876    8.1865   -4.9124 H   0  0  0  0  0  0  0  0  0  0  0  0
   30.6408    9.9944   -3.8471 H   0  0  0  0  0  0  0  0  0  0  0  0
   30.8621   10.6984   -5.5141 H   0  0  0  0  0  0  0  0  0  0  0  0
   29.4146   12.0444   -3.9489 H   0  0  0  0  0  0  0  0  0  0  0  0
   28.6752   11.5960   -5.5253 H   0  0  0  0  0  0  0  0  0  0  0  0
   27.4685    9.8746   -4.4981 H   0  0  0  0  0  0  0  0  0  0  0  0
   26.9161   11.4259   -2.2253 H   0  0  0  0  0  0  0  0  0  0  0  0
   27.1032   12.4627   -3.6802 H   0  0  0  0  0  0  0  0  0  0  0  0
   25.9072   11.1225   -3.6802 H   0  0  0  0  0  0  0  0  0  0  0  0
   31.2252   10.0228  -11.0777 H   0  0  0  0  0  0  0  0  0  0  0  0
   34.2030   11.7043  -13.4817 H   0  0  0  0  0  0  0  0  0  0  0  0
   34.9396    7.9284  -11.5717 H   0  0  0  0  0  0  0  0  0  0  0  0
   36.7772    9.7520  -12.5909 H   0  0  0  0  0  0  0  0  0  0  0  0
 31 29  1  0
 28 29  2  0
 28 27  1  0
 29 30  1  0
 27 26  2  0
 30 13  2  0
 26 13  1  0
 13  8  1  0
  9  8  1  0
  9 10  2  0
  8  7  2  0
 10  6  1  0
  7  5  1  0
  6  5  1  0
  6  1  2  0
  5  4  2  0
  1  2  1  0
  4 12  1  0
  4  3  1  0
 12 21  1  0
  2  3  2  0
  3 11  1  0
 21 22  1  0
 14 11  2  0
 14 15  1  0
 11 18  1  0
 22 23  1  0
 23 24  1  0
 19 15  1  0
 15 16  2  0
 18 17  2  0
 24 25  1  0
 16 17  1  0
 17 20  1  0
  2 32  1  0
  7 33  1  0
  9 34  1  0
 10 35  1  0
 12 36  1  0
 12 37  1  0
 14 38  1  0
 16 39  1  0
 18 40  1  0
 19 41  1  0
 19 42  1  0
 19 43  1  0
 20 44  1  0
 20 45  1  0
 20 46  1  0
 21 47  1  0
 21 48  1  0
 22 49  1  0
 22 50  1  0
 23 51  1  0
 23 52  1  0
 24 53  1  0
 25 54  1  0
 25 55  1  0
 25 56  1  0
 26 57  1  0
 28 58  1  0
 30 59  1  0
 31 60  1  0
A    1
N01
A    2
C02
A    3
C03
A    4
C04
A    5
C05
A    6
C06
A    7
C07
A    8
C08
A    9
C09
A   10
C10
A   11
C11
A   12
C12
A   13
C13
A   14
C14
A   15
C15
A   16
C16
A   17
C17
A   18
C18
A   19
C19
A   20
C20
A   21
C21
A   22
C22
A   23
C23
A   24
N24
A   25
C25
A   26
C26
A   27
N27
A   28
C28
A   29
C29
A   30
C30
A   31
O31
M  END
