3Q97_Q97_A_600
     RDKit          3D

 51 53  0  0  0  0  0  0  0  0999 V2000
   28.6740    2.9090    8.4880 C   0  0  0  0  0  0  0  0  0  0  0  0
   22.8300   -6.2380    8.1510 C   0  0  0  0  0  0  0  0  0  0  0  0
   26.1000   -3.3510   12.5860 O   0  0  0  0  0  0  0  0  0  0  0  0
   21.0110   -2.2900    2.0720 O   0  0  0  0  0  0  0  0  0  0  0  0
   24.5550   -2.6280   10.9620 C   0  0  0  0  0  0  0  0  0  0  0  0
   25.8880   -4.5770   10.5210 C   0  0  0  0  0  0  0  0  0  0  0  0
   21.0670   -2.7570    4.4130 C   0  0  0  0  0  0  0  0  0  0  0  0
   23.0970   -2.2900    3.2120 C   0  0  0  0  0  0  0  0  0  0  0  0
   25.6970    0.2830    7.1560 C   0  0  0  0  0  0  0  0  0  0  0  0
   27.2560   -1.5330    7.4500 C   0  0  0  0  0  0  0  0  0  0  0  0
   23.9550   -2.7740    9.7300 C   0  0  0  0  0  0  0  0  0  0  0  0
   25.2800   -4.7290    9.2750 C   0  0  0  0  0  0  0  0  0  0  0  0
   21.8070   -2.9150    5.5800 C   0  0  0  0  0  0  0  0  0  0  0  0
   23.8300   -2.4480    4.3820 C   0  0  0  0  0  0  0  0  0  0  0  0
   24.6740   -0.6230    6.9340 C   0  0  0  0  0  0  0  0  0  0  0  0
   26.2330   -2.4360    7.2310 C   0  0  0  0  0  0  0  0  0  0  0  0
   27.5220    2.0400    7.9470 C   0  0  0  0  0  0  0  0  0  0  0  0
   22.4740   -4.8790    7.5250 C   0  0  0  0  0  0  0  0  0  0  0  0
   27.9930    0.7090    7.6370 O   0  0  0  0  0  0  0  0  0  0  0  0
   23.6170   -3.8710    7.6910 C   0  0  0  0  0  0  0  0  0  0  0  0
   23.9170   -2.9030    6.7420 C   0  0  0  0  0  0  0  0  0  0  0  0
   25.5200   -3.5280   11.3650 C   0  0  0  0  0  0  0  0  0  0  0  0
   21.7160   -2.4460    3.2260 C   0  0  0  0  0  0  0  0  0  0  0  0
   26.9860   -0.1710    7.4150 C   0  0  0  0  0  0  0  0  0  0  0  0
   24.3140   -3.8100    8.8830 C   0  0  0  0  0  0  0  0  0  0  0  0
   23.1900   -2.7810    5.5630 C   0  0  0  0  0  0  0  0  0  0  0  0
   24.9400   -1.9830    6.9780 C   0  0  0  0  0  0  0  0  0  0  0  0
   28.6574    2.8965    9.5878 H   0  0  0  0  0  0  0  0  0  0  0  0
   29.6343    2.5084    8.1312 H   0  0  0  0  0  0  0  0  0  0  0  0
   28.5525    3.9424    8.1312 H   0  0  0  0  0  0  0  0  0  0  0  0
   22.8079   -6.1536    9.2475 H   0  0  0  0  0  0  0  0  0  0  0  0
   22.0995   -6.9938    7.8266 H   0  0  0  0  0  0  0  0  0  0  0  0
   23.8372   -6.5386    7.8266 H   0  0  0  0  0  0  0  0  0  0  0  0
   25.5762   -3.5109   13.4107 H   0  0  0  0  0  0  0  0  0  0  0  0
   20.0450   -2.0762    2.1071 H   0  0  0  0  0  0  0  0  0  0  0  0
   24.2656   -1.7968   11.6218 H   0  0  0  0  0  0  0  0  0  0  0  0
   26.6631   -5.2890   10.8408 H   0  0  0  0  0  0  0  0  0  0  0  0
   19.9738   -2.8778    4.4306 H   0  0  0  0  0  0  0  0  0  0  0  0
   23.6113   -2.0408    2.2721 H   0  0  0  0  0  0  0  0  0  0  0  0
   25.4902    1.3630    7.1275 H   0  0  0  0  0  0  0  0  0  0  0  0
   28.2768   -1.8904    7.6506 H   0  0  0  0  0  0  0  0  0  0  0  0
   23.1810   -2.0587    9.4150 H   0  0  0  0  0  0  0  0  0  0  0  0
   25.5603   -5.5622    8.6138 H   0  0  0  0  0  0  0  0  0  0  0  0
   21.2932   -3.1480    6.5243 H   0  0  0  0  0  0  0  0  0  0  0  0
   24.9210   -2.3081    4.3694 H   0  0  0  0  0  0  0  0  0  0  0  0
   23.6551   -0.2656    6.7237 H   0  0  0  0  0  0  0  0  0  0  0  0
   26.4403   -3.5160    7.2565 H   0  0  0  0  0  0  0  0  0  0  0  0
   26.7297    1.9755    8.7073 H   0  0  0  0  0  0  0  0  0  0  0  0
   27.1302    2.5012    7.0284 H   0  0  0  0  0  0  0  0  0  0  0  0
   22.2740   -5.0202    6.4526 H   0  0  0  0  0  0  0  0  0  0  0  0
   21.5855   -4.4830    8.0385 H   0  0  0  0  0  0  0  0  0  0  0  0
  1 17  1  0
  2 18  1  0
  3 22  1  0
  4 23  1  0
  5 11  2  0
  5 22  1  0
  6 12  1  0
  6 22  2  0
  7 13  2  0
  7 23  1  0
  8 14  1  0
  8 23  2  0
  9 15  2  0
  9 24  1  0
 10 16  1  0
 10 24  2  0
 11 25  1  0
 12 25  2  0
 13 26  1  0
 14 26  2  0
 15 27  1  0
 16 27  2  0
 17 19  1  0
 18 20  1  0
 19 24  1  0
 20 21  2  0
 20 25  1  0
 21 26  1  0
 21 27  1  0
  1 28  1  0
  1 29  1  0
  1 30  1  0
  2 31  1  0
  2 32  1  0
  2 33  1  0
  3 34  1  0
  4 35  1  0
  5 36  1  0
  6 37  1  0
  7 38  1  0
  8 39  1  0
  9 40  1  0
 10 41  1  0
 11 42  1  0
 12 43  1  0
 13 44  1  0
 14 45  1  0
 15 46  1  0
 16 47  1  0
 17 48  1  0
 17 49  1  0
 18 50  1  0
 18 51  1  0
A    1
CAA
A    2
CAB
A    3
OAC
A    4
OAD
A    5
CAE
A    6
CAF
A    7
CAG
A    8
CAH
A    9
CAI
A   10
CAJ
A   11
CAK
A   12
CAL
A   13
CAM
A   14
CAN
A   15
CAO
A   16
CAP
A   17
CAQ
A   18
CAR
A   19
OAS
A   20
CAT
A   21
CAU
A   22
CAV
A   23
CAW
A   24
CAX
A   25
CAY
A   26
CAZ
A   27
CBA
M  END
