5T2B_74O_A_1101
     RDKit          3D

 45 49  0  0  0  0  0  0  0  0999 V2000
   -2.1900  -51.4170   18.6880 C   0  0  0  0  0  0  0  0  0  0  0  0
   -2.3130  -50.3900   19.5980 C   0  0  0  0  0  0  0  0  0  0  0  0
   -2.5570  -52.6920   19.0670 C   0  0  0  0  0  0  0  0  0  0  0  0
   -4.3380  -47.0400   25.8200 C   0  0  0  0  0  0  0  0  0  0  0  0
   -8.8120  -48.0150   23.8980 C   0  0  0  0  0  0  0  0  0  0  0  0
   -8.2870  -47.0350   24.7130 C   0  0  0  0  0  0  0  0  0  0  0  0
   -3.1970  -51.9080   21.2690 C   0  0  0  0  0  0  0  0  0  0  0  0
   -4.9030  -48.0810   25.1240 C   0  0  0  0  0  0  0  0  0  0  0  0
   -6.9080  -47.0190   25.1560 C   0  0  0  0  0  0  0  0  0  0  0  0
   -6.3410  -45.9590   25.8390 C   0  0  0  0  0  0  0  0  0  0  0  0
   -4.1080  -49.1960   24.6820 C   0  0  0  0  0  0  0  0  0  0  0  0
   -3.6280  -50.9260   23.5790 C   0  0  0  0  0  0  0  0  0  0  0  0
   -4.9100  -53.0560   22.7990 C   0  0  0  0  0  0  0  0  0  0  0  0
   -1.1700  -50.9950   24.2420 C   0  0  0  0  0  0  0  0  0  0  0  0
   -4.6470  -50.1410   23.8530 N   0  0  0  0  0  0  0  0  0  0  0  0
  -10.1190  -47.6730   23.6910 N   0  0  0  0  0  0  0  0  0  0  0  0
   -2.5290  -50.4780   24.2530 N   0  0  0  0  0  0  0  0  0  0  0  0
   -2.8080  -50.6400   20.8610 C   0  0  0  0  0  0  0  0  0  0  0  0
   -3.0500  -52.9260   20.3370 C   0  0  0  0  0  0  0  0  0  0  0  0
   -9.3650  -46.1400   24.9140 C   0  0  0  0  0  0  0  0  0  0  0  0
   -3.5780  -53.4590   23.3570 C   0  0  0  0  0  0  0  0  0  0  0  0
   -3.7240  -52.1410   22.6460 C   0  0  0  0  0  0  0  0  0  0  0  0
   -5.0440  -45.9720   26.1930 N   0  0  0  0  0  0  0  0  0  0  0  0
  -10.4810  -46.5290   24.2870 N   0  0  0  0  0  0  0  0  0  0  0  0
   -6.1980  -48.0870   24.7810 N   0  0  0  0  0  0  0  0  0  0  0  0
   -2.8070  -49.3710   24.9560 N   0  0  0  0  0  0  0  0  0  0  0  0
   -7.1030  -44.8490   26.2090 N   0  0  0  0  0  0  0  0  0  0  0  0
   -1.8055  -51.2237   17.6757 H   0  0  0  0  0  0  0  0  0  0  0  0
   -2.0160  -49.3688   19.3169 H   0  0  0  0  0  0  0  0  0  0  0  0
   -2.4569  -53.5253   18.3559 H   0  0  0  0  0  0  0  0  0  0  0  0
   -3.2697  -47.0890   26.0777 H   0  0  0  0  0  0  0  0  0  0  0  0
   -8.2860  -48.8935   23.4960 H   0  0  0  0  0  0  0  0  0  0  0  0
   -5.7309  -52.7831   23.4785 H   0  0  0  0  0  0  0  0  0  0  0  0
   -5.6336  -53.5128   22.1078 H   0  0  0  0  0  0  0  0  0  0  0  0
   -0.8200  -51.1282   25.2763 H   0  0  0  0  0  0  0  0  0  0  0  0
   -1.1503  -51.9634   23.7207 H   0  0  0  0  0  0  0  0  0  0  0  0
   -0.5116  -50.2845   23.7207 H   0  0  0  0  0  0  0  0  0  0  0  0
  -10.7666  -48.2428   23.1281 H   0  0  0  0  0  0  0  0  0  0  0  0
   -2.8976  -49.8041   21.5704 H   0  0  0  0  0  0  0  0  0  0  0  0
   -3.3347  -53.9508   20.6177 H   0  0  0  0  0  0  0  0  0  0  0  0
   -9.2930  -45.2246   25.5196 H   0  0  0  0  0  0  0  0  0  0  0  0
   -3.0103  -54.2763   22.8883 H   0  0  0  0  0  0  0  0  0  0  0  0
   -3.2126  -53.7717   24.3463 H   0  0  0  0  0  0  0  0  0  0  0  0
   -7.2503  -44.6345   27.2056 H   0  0  0  0  0  0  0  0  0  0  0  0
   -7.5178  -44.2447   25.4853 H   0  0  0  0  0  0  0  0  0  0  0  0
  1  3  2  0
  1  2  1  0
  3 19  1  0
  2 18  2  0
 19  7  2  0
 18  7  1  0
  7 22  1  0
 22 13  1  0
 22 21  1  0
 22 12  1  0
 13 21  1  0
 12 15  2  0
 12 17  1  0
 16  5  1  0
 16 24  1  0
 15 11  1  0
  5  6  2  0
 14 17  1  0
 17 26  1  0
 24 20  2  0
 11 26  2  0
 11  8  1  0
  6 20  1  0
  6  9  1  0
 25  8  1  0
 25  9  2  0
  8  4  2  0
  9 10  1  0
  4 23  1  0
 10 23  2  0
 10 27  1  0
  1 28  1  0
  2 29  1  0
  3 30  1  0
  4 31  1  0
  5 32  1  0
 13 33  1  0
 13 34  1  0
 14 35  1  0
 14 36  1  0
 14 37  1  0
 16 38  1  0
 18 39  1  0
 19 40  1  0
 20 41  1  0
 21 42  1  0
 21 43  1  0
 27 44  1  0
 27 45  1  0
A    1
C1
A    2
C2
A    3
C3
A    4
C7
A    5
C8
A    6
C9
A    7
C10
A    8
C11
A    9
C12
A   10
C13
A   11
C14
A   12
C15
A   13
C16
A   14
C19
A   15
N23
A   16
N25
A   17
N26
A   18
C4
A   19
C5
A   20
C6
A   21
C17
A   22
C18
A   23
N20
A   24
N21
A   25
N22
A   26
N24
A   27
N27
M  END
