5T2D_74L_A_1101
     RDKit          3D

 56 60  0  0  0  0  0  0  0  0999 V2000
   13.6190   -1.0650   24.7360 C   0  0  0  0  0  0  0  0  0  0  0  0
   13.5620   -3.4990   23.9380 C   0  0  0  0  0  0  0  0  0  0  0  0
   11.9140   -2.8680   25.2790 N   0  0  0  0  0  0  0  0  0  0  0  0
   10.5970   -5.0120   25.3550 C   0  0  0  0  0  0  0  0  0  0  0  0
    9.5200   -4.5380   26.1120 C   0  0  0  0  0  0  0  0  0  0  0  0
    8.4650   -6.5940   25.9510 C   0  0  0  0  0  0  0  0  0  0  0  0
    9.5420   -7.0900   25.1640 C   0  0  0  0  0  0  0  0  0  0  0  0
    9.6060   -8.4630   24.5740 C   0  0  0  0  0  0  0  0  0  0  0  0
    9.0490   -9.6570   25.0800 C   0  0  0  0  0  0  0  0  0  0  0  0
   13.1580  -11.5980   22.8600 C   0  0  0  0  0  0  0  0  0  0  0  0
   15.6950   -4.7980   23.2380 C   0  0  0  0  0  0  0  0  0  0  0  0
   15.1420   -2.8450   19.2770 C   0  0  0  0  0  0  0  0  0  0  0  0
   13.8970   -2.3020   18.9690 C   0  0  0  0  0  0  0  0  0  0  0  0
   12.9460   -2.1630   19.9660 C   0  0  0  0  0  0  0  0  0  0  0  0
   13.2380   -2.6060   21.2580 C   0  0  0  0  0  0  0  0  0  0  0  0
   13.0870   -2.4310   24.6370 N   0  0  0  0  0  0  0  0  0  0  0  0
   12.7300   -4.4900   24.1290 N   0  0  0  0  0  0  0  0  0  0  0  0
   11.7360   -4.1320   24.9590 C   0  0  0  0  0  0  0  0  0  0  0  0
    8.5050   -5.3460   26.4030 N   0  0  0  0  0  0  0  0  0  0  0  0
   10.5530   -6.2650   24.8880 N   0  0  0  0  0  0  0  0  0  0  0  0
    9.3240  -10.6350   24.2600 N   0  0  0  0  0  0  0  0  0  0  0  0
   10.0950  -10.1270   23.2070 N   0  0  0  0  0  0  0  0  0  0  0  0
   10.2430   -8.7990   23.4060 C   0  0  0  0  0  0  0  0  0  0  0  0
   10.6670  -11.0280   21.9310 S   0  0  0  0  0  0  0  0  0  0  0  0
   10.1430  -10.4530   20.7370 O   0  0  0  0  0  0  0  0  0  0  0  0
   10.3640  -12.3810   22.2940 O   0  0  0  0  0  0  0  0  0  0  0  0
   12.3260  -10.9160   21.8620 N   0  0  0  0  0  0  0  0  0  0  0  0
   12.9850  -10.1800   20.7770 C   0  0  0  0  0  0  0  0  0  0  0  0
    7.3530   -7.3500   26.2770 N   0  0  0  0  0  0  0  0  0  0  0  0
   14.7670   -3.5920   23.0130 C   0  0  0  0  0  0  0  0  0  0  0  0
   16.1810   -3.3980   23.5890 C   0  0  0  0  0  0  0  0  0  0  0  0
   14.4870   -3.1460   21.5880 C   0  0  0  0  0  0  0  0  0  0  0  0
   15.4380   -3.2610   20.5750 C   0  0  0  0  0  0  0  0  0  0  0  0
   13.7264   -0.7892   25.7954 H   0  0  0  0  0  0  0  0  0  0  0  0
   14.6014   -1.0175   24.2433 H   0  0  0  0  0  0  0  0  0  0  0  0
   12.9275   -0.3656   24.2433 H   0  0  0  0  0  0  0  0  0  0  0  0
    9.5130   -3.4967   26.4664 H   0  0  0  0  0  0  0  0  0  0  0  0
    8.4758   -9.7488   26.0143 H   0  0  0  0  0  0  0  0  0  0  0  0
   12.8204  -11.3213   23.8697 H   0  0  0  0  0  0  0  0  0  0  0  0
   13.0693  -12.6866   22.7292 H   0  0  0  0  0  0  0  0  0  0  0  0
   14.2080  -11.2974   22.7292 H   0  0  0  0  0  0  0  0  0  0  0  0
   15.4737   -5.5191   24.0386 H   0  0  0  0  0  0  0  0  0  0  0  0
   16.0732   -5.6144   22.6052 H   0  0  0  0  0  0  0  0  0  0  0  0
   15.9009   -2.9470   18.4872 H   0  0  0  0  0  0  0  0  0  0  0  0
   13.6705   -1.9855   17.9402 H   0  0  0  0  0  0  0  0  0  0  0  0
   11.9698   -1.7080   19.7425 H   0  0  0  0  0  0  0  0  0  0  0  0
   12.4657   -2.5286   22.0375 H   0  0  0  0  0  0  0  0  0  0  0  0
   10.7823   -8.1052   22.7444 H   0  0  0  0  0  0  0  0  0  0  0  0
   13.6612   -9.4248   21.2041 H   0  0  0  0  0  0  0  0  0  0  0  0
   13.5630  -10.8809   20.1568 H   0  0  0  0  0  0  0  0  0  0  0  0
   12.2248   -9.6826   20.1568 H   0  0  0  0  0  0  0  0  0  0  0  0
    7.1129   -7.5132   27.2652 H   0  0  0  0  0  0  0  0  0  0  0  0
    6.7653   -7.7496   25.5314 H   0  0  0  0  0  0  0  0  0  0  0  0
   16.9612   -2.9187   22.9795 H   0  0  0  0  0  0  0  0  0  0  0  0
   16.5927   -2.9231   24.4918 H   0  0  0  0  0  0  0  0  0  0  0  0
   16.4285   -3.6827   20.8010 H   0  0  0  0  0  0  0  0  0  0  0  0
 13 12  2  0
 13 14  1  0
 12 33  1  0
 14 15  2  0
 33 32  2  0
 25 24  2  0
 28 27  1  0
 15 32  1  0
 32 30  1  0
 27 24  1  0
 27 10  1  0
 24 26  2  0
 24 22  1  0
 30 11  1  0
 30 31  1  0
 30  2  1  0
 22 23  1  0
 22 21  1  0
 11 31  1  0
 23  8  2  0
  2 17  2  0
  2 16  1  0
 17 18  1  0
 21  9  2  0
  8  9  1  0
  8  7  1  0
 16  1  1  0
 16  3  1  0
 20  7  2  0
 20  4  1  0
 18  3  2  0
 18  4  1  0
  7  6  1  0
  4  5  2  0
  6 29  1  0
  6 19  2  0
  5 19  1  0
  1 34  1  0
  1 35  1  0
  1 36  1  0
  5 37  1  0
  9 38  1  0
 10 39  1  0
 10 40  1  0
 10 41  1  0
 11 42  1  0
 11 43  1  0
 12 44  1  0
 13 45  1  0
 14 46  1  0
 15 47  1  0
 23 48  1  0
 28 49  1  0
 28 50  1  0
 28 51  1  0
 29 52  1  0
 29 53  1  0
 31 54  1  0
 31 55  1  0
 33 56  1  0
A    1
C1
A    2
C3
A    3
N6
A    4
C7
A    5
C8
A    6
C10
A    7
C11
A    8
C13
A    9
C14
A   10
C22
A   11
C27
A   12
C30
A   13
C31
A   14
C32
A   15
C33
A   16
N2
A   17
N4
A   18
C5
A   19
N9
A   20
N12
A   21
N15
A   22
N16
A   23
C17
A   24
S18
A   25
O19
A   26
O20
A   27
N21
A   28
C23
A   29
N24
A   30
C25
A   31
C26
A   32
C28
A   33
C29
M  END
