5T2G_74K_A_1101
     RDKit          3D

 49 53  0  0  0  0  0  0  0  0999 V2000
   15.9420   -3.3910   23.4560 C   0  0  0  0  0  0  0  0  0  0  0  0
   14.5620   -3.5890   22.8060 C   0  0  0  0  0  0  0  0  0  0  0  0
   15.4820   -4.7950   23.0600 C   0  0  0  0  0  0  0  0  0  0  0  0
    8.3890   -5.2930   26.2870 N   0  0  0  0  0  0  0  0  0  0  0  0
    8.3920   -6.5710   25.9310 C   0  0  0  0  0  0  0  0  0  0  0  0
    9.4780   -7.1050   25.1810 C   0  0  0  0  0  0  0  0  0  0  0  0
    9.5380   -8.4930   24.6210 C   0  0  0  0  0  0  0  0  0  0  0  0
   11.5480   -4.0810   24.7410 C   0  0  0  0  0  0  0  0  0  0  0  0
   13.3550   -3.4760   23.7110 C   0  0  0  0  0  0  0  0  0  0  0  0
   13.0520   -2.6690   21.0160 C   0  0  0  0  0  0  0  0  0  0  0  0
   12.7960   -2.2440   19.7160 C   0  0  0  0  0  0  0  0  0  0  0  0
   13.7920   -2.3240   18.7450 C   0  0  0  0  0  0  0  0  0  0  0  0
   15.0610   -2.7940   19.0870 C   0  0  0  0  0  0  0  0  0  0  0  0
   10.2350   -8.8680   23.4980 C   0  0  0  0  0  0  0  0  0  0  0  0
   10.0310  -10.2020   23.2680 N   0  0  0  0  0  0  0  0  0  0  0  0
    9.1540  -10.6450   24.2700 N   0  0  0  0  0  0  0  0  0  0  0  0
    8.8600   -9.6480   25.0640 C   0  0  0  0  0  0  0  0  0  0  0  0
   10.2350  -12.2920   22.2060 N   0  0  0  0  0  0  0  0  0  0  0  0
   10.4240   -4.9640   25.1730 C   0  0  0  0  0  0  0  0  0  0  0  0
    9.3670   -4.4700   25.9380 C   0  0  0  0  0  0  0  0  0  0  0  0
   10.4380   -6.2560   24.8140 N   0  0  0  0  0  0  0  0  0  0  0  0
    7.3170   -7.3170   26.3420 N   0  0  0  0  0  0  0  0  0  0  0  0
   12.5230   -4.4560   23.9040 N   0  0  0  0  0  0  0  0  0  0  0  0
   12.9330   -2.4130   24.4410 N   0  0  0  0  0  0  0  0  0  0  0  0
   11.7600   -2.8300   25.0880 N   0  0  0  0  0  0  0  0  0  0  0  0
   13.5180   -1.0710   24.5570 C   0  0  0  0  0  0  0  0  0  0  0  0
   14.3160   -3.1500   21.3720 C   0  0  0  0  0  0  0  0  0  0  0  0
   15.3220   -3.2080   20.3920 C   0  0  0  0  0  0  0  0  0  0  0  0
   10.5590  -10.9850   22.2690 C   0  0  0  0  0  0  0  0  0  0  0  0
   11.3470  -10.5790   21.4300 O   0  0  0  0  0  0  0  0  0  0  0  0
   16.7487   -2.8980   22.8936 H   0  0  0  0  0  0  0  0  0  0  0  0
   16.3037   -2.9251   24.3845 H   0  0  0  0  0  0  0  0  0  0  0  0
   15.2241   -5.5286   23.8380 H   0  0  0  0  0  0  0  0  0  0  0  0
   15.8961   -5.6009   22.4363 H   0  0  0  0  0  0  0  0  0  0  0  0
   12.2528   -2.6262   21.7706 H   0  0  0  0  0  0  0  0  0  0  0  0
   11.8053   -1.8440   19.4544 H   0  0  0  0  0  0  0  0  0  0  0  0
   13.5786   -2.0172   17.7104 H   0  0  0  0  0  0  0  0  0  0  0  0
   15.8548   -2.8376   18.3268 H   0  0  0  0  0  0  0  0  0  0  0  0
   10.8576   -8.2025   22.8820 H   0  0  0  0  0  0  0  0  0  0  0  0
    8.1920   -9.7015   25.9363 H   0  0  0  0  0  0  0  0  0  0  0  0
   10.1012  -12.8318   23.0730 H   0  0  0  0  0  0  0  0  0  0  0  0
   10.1213  -12.7509   21.2909 H   0  0  0  0  0  0  0  0  0  0  0  0
    9.3459   -3.4143   26.2464 H   0  0  0  0  0  0  0  0  0  0  0  0
    7.1329   -7.4447   27.3473 H   0  0  0  0  0  0  0  0  0  0  0  0
    6.6937   -7.7495   25.6453 H   0  0  0  0  0  0  0  0  0  0  0  0
   13.6313   -0.8110   25.6198 H   0  0  0  0  0  0  0  0  0  0  0  0
   14.5038   -1.0573   24.0690 H   0  0  0  0  0  0  0  0  0  0  0  0
   12.8571   -0.3395   24.0690 H   0  0  0  0  0  0  0  0  0  0  0  0
   16.3218   -3.5826   20.6568 H   0  0  0  0  0  0  0  0  0  0  0  0
 12 13  2  0
 12 11  1  0
 13 28  1  0
 11 10  2  0
 28 27  2  0
 10 27  1  0
 27  2  1  0
 30 29  2  0
 18 29  1  0
 29 15  1  0
  2  3  1  0
  2  1  1  0
  2  9  1  0
  3  1  1  0
 15 14  1  0
 15 16  1  0
 14  7  2  0
  9 23  2  0
  9 24  1  0
 23  8  1  0
 16 17  2  0
 24 26  1  0
 24 25  1  0
  7 17  1  0
  7  6  1  0
  8 25  2  0
  8 19  1  0
 21 19  1  0
 21  6  2  0
 19 20  2  0
  6  5  1  0
  5  4  2  0
  5 22  1  0
 20  4  1  0
  1 31  1  0
  1 32  1  0
  3 33  1  0
  3 34  1  0
 10 35  1  0
 11 36  1  0
 12 37  1  0
 13 38  1  0
 14 39  1  0
 17 40  1  0
 18 41  1  0
 18 42  1  0
 20 43  1  0
 22 44  1  0
 22 45  1  0
 26 46  1  0
 26 47  1  0
 26 48  1  0
 28 49  1  0
A    1
C1
A    2
C2
A    3
C3
A    4
N6
A    5
C7
A    6
C8
A    7
C11
A    8
C12
A    9
C14
A   10
C19
A   11
C20
A   12
C21
A   13
C22
A   14
C24
A   15
N25
A   16
N26
A   17
C27
A   18
N29
A   19
C4
A   20
C5
A   21
N9
A   22
N10
A   23
N13
A   24
N15
A   25
N16
A   26
C17
A   27
C18
A   28
C23
A   29
C28
A   30
O30
M  END
