5T2I_74J_A_1101
     RDKit          3D

 49 53  0  0  0  0  0  0  0  0999 V2000
   13.8640   -2.2530   18.9800 C   0  0  0  0  0  0  0  0  0  0  0  0
   12.9220   -2.1330   19.9730 C   0  0  0  0  0  0  0  0  0  0  0  0
   15.0970   -2.7920   19.2840 C   0  0  0  0  0  0  0  0  0  0  0  0
    9.6020   -4.2850   26.1050 C   0  0  0  0  0  0  0  0  0  0  0  0
   10.5380   -8.6640   24.1040 C   0  0  0  0  0  0  0  0  0  0  0  0
   10.1750   -9.9610   23.8400 C   0  0  0  0  0  0  0  0  0  0  0  0
   14.4560   -3.0960   21.5980 C   0  0  0  0  0  0  0  0  0  0  0  0
   10.6520   -4.8340   25.4070 C   0  0  0  0  0  0  0  0  0  0  0  0
    9.6140   -6.8400   25.4370 C   0  0  0  0  0  0  0  0  0  0  0  0
    8.5510   -6.2950   26.1420 C   0  0  0  0  0  0  0  0  0  0  0  0
   11.7670   -4.0200   24.9830 C   0  0  0  0  0  0  0  0  0  0  0  0
   13.5050   -3.4730   23.9250 C   0  0  0  0  0  0  0  0  0  0  0  0
   10.8330  -10.8510   22.9230 C   0  0  0  0  0  0  0  0  0  0  0  0
   14.7460   -3.5150   22.9930 C   0  0  0  0  0  0  0  0  0  0  0  0
   13.4710   -1.0320   24.6720 C   0  0  0  0  0  0  0  0  0  0  0  0
   10.6670   -6.1180   25.0490 N   0  0  0  0  0  0  0  0  0  0  0  0
   11.9020   -2.7320   25.3150 N   0  0  0  0  0  0  0  0  0  0  0  0
    9.6640   -8.1840   25.0390 N   0  0  0  0  0  0  0  0  0  0  0  0
   10.4710  -12.1590   23.1400 N   0  0  0  0  0  0  0  0  0  0  0  0
   13.2240   -2.5570   21.2520 C   0  0  0  0  0  0  0  0  0  0  0  0
   15.3840   -3.2020   20.5720 C   0  0  0  0  0  0  0  0  0  0  0  0
    9.0550  -10.1930   24.6670 C   0  0  0  0  0  0  0  0  0  0  0  0
   15.7800   -4.5930   23.2520 C   0  0  0  0  0  0  0  0  0  0  0  0
   16.0760   -3.1680   23.6120 C   0  0  0  0  0  0  0  0  0  0  0  0
    8.5470   -4.9990   26.4790 N   0  0  0  0  0  0  0  0  0  0  0  0
    8.7600   -9.1160   25.3980 N   0  0  0  0  0  0  0  0  0  0  0  0
   12.7310   -4.5110   24.1410 N   0  0  0  0  0  0  0  0  0  0  0  0
   13.0120   -2.4110   24.6390 N   0  0  0  0  0  0  0  0  0  0  0  0
    7.4430   -7.0530   26.5270 N   0  0  0  0  0  0  0  0  0  0  0  0
   11.6170  -10.4530   22.0690 O   0  0  0  0  0  0  0  0  0  0  0  0
   13.6378   -1.9234   17.9552 H   0  0  0  0  0  0  0  0  0  0  0  0
   11.9345   -1.7023   19.7508 H   0  0  0  0  0  0  0  0  0  0  0  0
   15.8570   -2.8961   18.4956 H   0  0  0  0  0  0  0  0  0  0  0  0
    9.6375   -3.2162   26.3626 H   0  0  0  0  0  0  0  0  0  0  0  0
   11.3749   -8.1141   23.6488 H   0  0  0  0  0  0  0  0  0  0  0  0
   13.5793   -0.7065   25.7171 H   0  0  0  0  0  0  0  0  0  0  0  0
   14.4427   -0.9567   24.1619 H   0  0  0  0  0  0  0  0  0  0  0  0
   12.7383   -0.3894   24.1619 H   0  0  0  0  0  0  0  0  0  0  0  0
   10.3729  -12.5134   24.1021 H   0  0  0  0  0  0  0  0  0  0  0  0
   10.2978  -12.7848   22.3405 H   0  0  0  0  0  0  0  0  0  0  0  0
   12.4539   -2.4636   22.0319 H   0  0  0  0  0  0  0  0  0  0  0  0
   16.3760   -3.6243   20.7900 H   0  0  0  0  0  0  0  0  0  0  0  0
    8.4968  -11.1401   24.7043 H   0  0  0  0  0  0  0  0  0  0  0  0
   15.6122   -5.3371   24.0446 H   0  0  0  0  0  0  0  0  0  0  0  0
   16.2756   -5.3592   22.6377 H   0  0  0  0  0  0  0  0  0  0  0  0
   16.8185   -2.5990   23.0333 H   0  0  0  0  0  0  0  0  0  0  0  0
   16.3917   -2.6506   24.5299 H   0  0  0  0  0  0  0  0  0  0  0  0
    7.2374   -7.1937   27.5264 H   0  0  0  0  0  0  0  0  0  0  0  0
    6.8315   -7.4714   25.8115 H   0  0  0  0  0  0  0  0  0  0  0  0
  1  3  2  0
  1  2  1  0
  3 21  1  0
  2 20  2  0
 21  7  2  0
 20  7  1  0
  7 14  1  0
 30 13  2  0
 13 19  1  0
 13  6  1  0
 14 23  1  0
 14 24  1  0
 14 12  1  0
 23 24  1  0
  6  5  2  0
  6 22  1  0
 12 27  2  0
 12 28  1  0
  5 18  1  0
 27 11  1  0
 28 15  1  0
 28 17  1  0
 22 26  2  0
 11 17  2  0
 11  8  1  0
 18 26  1  0
 18  9  1  0
 16  8  1  0
 16  9  2  0
  8  4  2  0
  9 10  1  0
  4 25  1  0
 10 25  2  0
 10 29  1  0
  1 31  1  0
  2 32  1  0
  3 33  1  0
  4 34  1  0
  5 35  1  0
 15 36  1  0
 15 37  1  0
 15 38  1  0
 19 39  1  0
 19 40  1  0
 20 41  1  0
 21 42  1  0
 22 43  1  0
 23 44  1  0
 23 45  1  0
 24 46  1  0
 24 47  1  0
 29 48  1  0
 29 49  1  0
A    1
C1
A    2
C2
A    3
C3
A    4
C7
A    5
C8
A    6
C9
A    7
C10
A    8
C11
A    9
C12
A   10
C13
A   11
C14
A   12
C15
A   13
C16
A   14
C19
A   15
C20
A   16
N23
A   17
N25
A   18
N26
A   19
N29
A   20
C4
A   21
C5
A   22
C6
A   23
C17
A   24
C18
A   25
N21
A   26
N22
A   27
N24
A   28
N27
A   29
N28
A   30
O30
M  END
