5T2P_K89_A_201
     RDKit          3D

 45 47  0  0  0  0  0  0  0  0999 V2000
   14.8480   24.2190   -6.0930 C   0  0  0  0  0  0  0  0  0  0  0  0
   17.1510   23.4440   -6.1060 C   0  0  0  0  0  0  0  0  0  0  0  0
   14.7090   23.7620   -7.3970 C   0  0  0  0  0  0  0  0  0  0  0  0
   10.3100   24.6760   -0.1170 O   0  0  0  0  0  0  0  0  0  0  0  0
    7.9430   23.0270   -1.0580 C   0  0  0  0  0  0  0  0  0  0  0  0
    7.0190   21.7730   -0.9930 C   0  0  0  0  0  0  0  0  0  0  0  0
    7.1400   20.8230   -2.1840 C   0  0  0  0  0  0  0  0  0  0  0  0
    9.4820   21.7380   -2.5190 C   0  0  0  0  0  0  0  0  0  0  0  0
   10.6610   26.6530   -4.9650 C   0  0  0  0  0  0  0  0  0  0  0  0
    9.6990   26.8620   -3.9770 C   0  0  0  0  0  0  0  0  0  0  0  0
    9.6950   26.0110   -2.8620 C   0  0  0  0  0  0  0  0  0  0  0  0
   10.5870   24.9840   -2.6650 C   0  0  0  0  0  0  0  0  0  0  0  0
   11.5120   24.8220   -3.6630 C   0  0  0  0  0  0  0  0  0  0  0  0
   11.5980   25.6490   -4.8360 C   0  0  0  0  0  0  0  0  0  0  0  0
   12.6100   25.3410   -5.7990 C   0  0  0  0  0  0  0  0  0  0  0  0
   12.4410   25.5830   -6.9970 O   0  0  0  0  0  0  0  0  0  0  0  0
   13.7830   24.7400   -5.3800 N   0  0  0  0  0  0  0  0  0  0  0  0
   16.0680   24.0560   -5.4610 C   0  0  0  0  0  0  0  0  0  0  0  0
   17.0450   22.9940   -7.4090 C   0  0  0  0  0  0  0  0  0  0  0  0
   15.7950   23.1590   -8.0490 C   0  0  0  0  0  0  0  0  0  0  0  0
   15.6690   22.7280   -9.3090 F   0  0  0  0  0  0  0  0  0  0  0  0
   18.1140   22.4290   -7.9900 F   0  0  0  0  0  0  0  0  0  0  0  0
   18.3020   23.3280   -5.4530 F   0  0  0  0  0  0  0  0  0  0  0  0
   10.5770   23.9110   -1.2740 S   0  0  0  0  0  0  0  0  0  0  0  0
   11.8190   23.2070   -1.3120 O   0  0  0  0  0  0  0  0  0  0  0  0
    9.3820   22.7870   -1.4720 N   0  0  0  0  0  0  0  0  0  0  0  0
    8.6080   20.4930   -2.3450 C   0  0  0  0  0  0  0  0  0  0  0  0
    6.3940   19.6440   -1.9470 O   0  0  0  0  0  0  0  0  0  0  0  0
    8.7810   26.2470   -1.9250 F   0  0  0  0  0  0  0  0  0  0  0  0
   13.7470   23.8729   -7.9188 H   0  0  0  0  0  0  0  0  0  0  0  0
    7.5009   23.7307   -1.7787 H   0  0  0  0  0  0  0  0  0  0  0  0
    7.9962   23.4030   -0.0256 H   0  0  0  0  0  0  0  0  0  0  0  0
    7.2688   21.2112   -0.0809 H   0  0  0  0  0  0  0  0  0  0  0  0
    5.9857   22.1500   -1.0024 H   0  0  0  0  0  0  0  0  0  0  0  0
    6.7444   21.2902   -3.0979 H   0  0  0  0  0  0  0  0  0  0  0  0
    9.2112   22.2014   -3.4792 H   0  0  0  0  0  0  0  0  0  0  0  0
   10.5168   21.3703   -2.4553 H   0  0  0  0  0  0  0  0  0  0  0  0
   10.6726   27.2962   -5.8573 H   0  0  0  0  0  0  0  0  0  0  0  0
    8.9622   27.6735   -4.0698 H   0  0  0  0  0  0  0  0  0  0  0  0
   12.2388   24.0028   -3.5596 H   0  0  0  0  0  0  0  0  0  0  0  0
   13.8809   24.6675   -4.3572 H   0  0  0  0  0  0  0  0  0  0  0  0
   16.1906   24.4151   -4.4285 H   0  0  0  0  0  0  0  0  0  0  0  0
    8.9458   19.9490   -1.4506 H   0  0  0  0  0  0  0  0  0  0  0  0
    8.7123   19.8860   -3.2564 H   0  0  0  0  0  0  0  0  0  0  0  0
    6.3036   19.5012   -0.9715 H   0  0  0  0  0  0  0  0  0  0  0  0
  6  5  1  0
  6  7  1  0
  4 24  2  0
 28  7  1  0
  5 26  1  0
  7 27  1  0
 26 24  1  0
 26  8  1  0
 24 25  2  0
 24 12  1  0
 27  8  1  0
 29 11  1  0
 12 11  2  0
 12 13  1  0
 11 10  1  0
 13 14  2  0
 10  9  2  0
 14  9  1  0
 14 15  1  0
 17 15  1  0
 17  1  1  0
 15 16  2  0
 18  1  1  0
 18  2  2  0
 23  2  1  0
  1  3  2  0
  2 19  1  0
  3 20  1  0
 19 20  2  0
 19 22  1  0
 20 21  1  0
  3 30  1  0
  5 31  1  0
  5 32  1  0
  6 33  1  0
  6 34  1  0
  7 35  1  0
  8 36  1  0
  8 37  1  0
  9 38  1  0
 10 39  1  0
 13 40  1  0
 17 41  1  0
 18 42  1  0
 27 43  1  0
 27 44  1  0
 28 45  1  0
A    1
C10
A    2
C12
A    3
C15
A    4
O20
A    5
C23
A    6
C24
A    7
C25
A    8
C27
A    9
C01
A   10
C02
A   11
C03
A   12
C04
A   13
C05
A   14
C06
A   15
C07
A   16
O08
A   17
N09
A   18
C11
A   19
C13
A   20
C14
A   21
F16
A   22
F17
A   23
F18
A   24
S19
A   25
O21
A   26
N22
A   27
C26
A   28
O28
A   29
F29
M  END
