5T2Y_753_A_201
     RDKit          3D

 40 42  0  0  0  0  0  0  0  0999 V2000
   51.3890  106.2060   -7.6390 C   0  0  0  0  0  0  0  0  0  0  0  0
   51.7470  105.1980   -6.7750 C   0  0  0  0  0  0  0  0  0  0  0  0
   51.6610  105.0810   -5.2910 C   0  0  0  0  0  0  0  0  0  0  0  0
   52.3070  104.6160   -9.1360 C   0  0  0  0  0  0  0  0  0  0  0  0
   51.7150  105.8790   -9.0310 C   0  0  0  0  0  0  0  0  0  0  0  0
   51.5760  106.4820  -10.3840 C   0  0  0  0  0  0  0  0  0  0  0  0
   50.8400  108.3260  -11.8280 C   0  0  0  0  0  0  0  0  0  0  0  0
   52.4950  104.6510  -11.4130 C   0  0  0  0  0  0  0  0  0  0  0  0
   51.0970  105.7930   -4.4620 O   0  0  0  0  0  0  0  0  0  0  0  0
   51.9650  105.8750  -11.5250 N   0  0  0  0  0  0  0  0  0  0  0  0
   52.6910  104.0030  -10.2640 N   0  0  0  0  0  0  0  0  0  0  0  0
   51.0080  107.6830  -10.5430 N   0  0  0  0  0  0  0  0  0  0  0  0
   50.7440  107.4930   -7.2050 C   0  0  0  0  0  0  0  0  0  0  0  0
   52.2680  103.9410   -5.0000 O   0  0  0  0  0  0  0  0  0  0  0  0
   52.4780  103.8430   -7.5840 S   0  0  0  0  0  0  0  0  0  0  0  0
   52.8930  103.8650  -12.6250 C   0  0  0  0  0  0  0  0  0  0  0  0
   51.6530  103.3400  -13.4910 C   0  0  0  0  0  0  0  0  0  0  0  0
   52.0070  102.3450  -14.5740 C   0  0  0  0  0  0  0  0  0  0  0  0
   52.0970  102.7390  -15.9030 C   0  0  0  0  0  0  0  0  0  0  0  0
   52.3900  101.8190  -16.8960 C   0  0  0  0  0  0  0  0  0  0  0  0
   52.5880  100.4950  -16.5760 C   0  0  0  0  0  0  0  0  0  0  0  0
   52.5020  100.0880  -15.2600 C   0  0  0  0  0  0  0  0  0  0  0  0
   52.2150  101.0070  -14.2650 C   0  0  0  0  0  0  0  0  0  0  0  0
   50.5646  109.3802  -11.6773 H   0  0  0  0  0  0  0  0  0  0  0  0
   51.7828  108.2704  -12.3919 H   0  0  0  0  0  0  0  0  0  0  0  0
   50.0449  107.8163  -12.3919 H   0  0  0  0  0  0  0  0  0  0  0  0
   51.2289  105.6265   -3.4950 H   0  0  0  0  0  0  0  0  0  0  0  0
   50.6718  108.1771   -9.7041 H   0  0  0  0  0  0  0  0  0  0  0  0
   50.7208  107.5392   -6.1062 H   0  0  0  0  0  0  0  0  0  0  0  0
   51.3226  108.3431   -7.5956 H   0  0  0  0  0  0  0  0  0  0  0  0
   49.7167  107.5383   -7.5956 H   0  0  0  0  0  0  0  0  0  0  0  0
   53.4798  102.9945  -12.2965 H   0  0  0  0  0  0  0  0  0  0  0  0
   53.4705  104.5428  -13.2708 H   0  0  0  0  0  0  0  0  0  0  0  0
   51.1773  104.2094  -13.9683 H   0  0  0  0  0  0  0  0  0  0  0  0
   50.9904  102.8103  -12.7907 H   0  0  0  0  0  0  0  0  0  0  0  0
   51.9337  103.7936  -16.1698 H   0  0  0  0  0  0  0  0  0  0  0  0
   52.4647  102.1473  -17.9432 H   0  0  0  0  0  0  0  0  0  0  0  0
   52.8140   99.7639  -17.3662 H   0  0  0  0  0  0  0  0  0  0  0  0
   52.6619   99.0309  -15.0010 H   0  0  0  0  0  0  0  0  0  0  0  0
   52.1510  100.6739  -13.2186 H   0  0  0  0  0  0  0  0  0  0  0  0
 20 21  1  0
 20 19  2  0
 21 22  2  0
 19 18  1  0
 22 23  1  0
 18 23  2  0
 18 17  1  0
 17 16  1  0
 16  8  1  0
  7 12  1  0
 10  8  2  0
 10  6  1  0
  8 11  1  0
 12  6  1  0
  6  5  2  0
 11  4  2  0
  4  5  1  0
  4 15  1  0
  5  1  1  0
  1 13  1  0
  1  2  2  0
 15  2  1  0
  2  3  1  0
  3 14  2  0
  3  9  1  0
  7 24  1  0
  7 25  1  0
  7 26  1  0
  9 27  1  0
 12 28  1  0
 13 29  1  0
 13 30  1  0
 13 31  1  0
 16 32  1  0
 16 33  1  0
 17 34  1  0
 17 35  1  0
 19 36  1  0
 20 37  1  0
 21 38  1  0
 22 39  1  0
 23 40  1  0
A    1
C1
A    2
C2
A    3
C3
A    4
C4
A    5
C5
A    6
C6
A    7
C7
A    8
C8
A    9
O1
A   10
N1
A   11
N2
A   12
N
A   13
C
A   14
O
A   15
S
A   16
C9
A   17
C10
A   18
C11
A   19
C16
A   20
C15
A   21
C14
A   22
C13
A   23
C12
M  END
