5T3Q_75H_A_1401
     RDKit          3D

 70 74  0  0  0  0  0  0  0  0999 V2000
   20.6020   -6.9290   27.4160 C   0  0  0  0  0  0  0  0  0  0  0  0
   19.7180   -6.7210   26.2740 O   0  0  0  0  0  0  0  0  0  0  0  0
   20.3050   -6.3360   25.1090 C   0  0  0  0  0  0  0  0  0  0  0  0
   21.6490   -5.9600   25.0650 C   0  0  0  0  0  0  0  0  0  0  0  0
   19.5270   -6.2880   23.9480 C   0  0  0  0  0  0  0  0  0  0  0  0
   20.1210   -5.8940   22.7450 C   0  0  0  0  0  0  0  0  0  0  0  0
   21.4800   -5.5410   22.7020 C   0  0  0  0  0  0  0  0  0  0  0  0
   22.2440   -5.5730   23.8670 C   0  0  0  0  0  0  0  0  0  0  0  0
   23.5580   -5.2160   23.8360 N   0  0  0  0  0  0  0  0  0  0  0  0
   24.1550   -4.8160   22.7160 C   0  0  0  0  0  0  0  0  0  0  0  0
   23.4430   -4.7540   21.5150 C   0  0  0  0  0  0  0  0  0  0  0  0
   22.0780   -5.1220   21.5050 C   0  0  0  0  0  0  0  0  0  0  0  0
   21.2900   -5.0990   20.3790 O   0  0  0  0  0  0  0  0  0  0  0  0
   21.6930   -4.4790   19.2450 C   0  0  0  0  0  0  0  0  0  0  0  0
   22.0660   -5.2630   18.1630 C   0  0  0  0  0  0  0  0  0  0  0  0
   22.4620   -4.6740   16.9710 C   0  0  0  0  0  0  0  0  0  0  0  0
   22.0410   -6.6090   18.2600 F   0  0  0  0  0  0  0  0  0  0  0  0
   21.7060   -3.0850   19.1350 C   0  0  0  0  0  0  0  0  0  0  0  0
   22.1300   -2.4950   17.9370 C   0  0  0  0  0  0  0  0  0  0  0  0
   22.5020   -3.2850   16.8410 C   0  0  0  0  0  0  0  0  0  0  0  0
   22.9280   -2.8180   15.6480 N   0  0  0  0  0  0  0  0  0  0  0  0
   23.0760   -1.5220   15.2830 C   0  0  0  0  0  0  0  0  0  0  0  0
   22.8770   -0.5360   16.0000 O   0  0  0  0  0  0  0  0  0  0  0  0
   23.6870   -1.3410   13.9000 C   0  0  0  0  0  0  0  0  0  0  0  0
   24.0900   -2.3450   13.0340 C   0  0  0  0  0  0  0  0  0  0  0  0
   23.9680   -3.5710   13.2210 O   0  0  0  0  0  0  0  0  0  0  0  0
   24.0310   -0.1540   13.2660 C   0  0  0  0  0  0  0  0  0  0  0  0
   23.8020    1.2630   13.8290 C   0  0  0  0  0  0  0  0  0  0  0  0
   24.5640   -0.4820   12.0780 N   0  0  0  0  0  0  0  0  0  0  0  0
   25.0520    0.5120   11.0860 C   0  0  0  0  0  0  0  0  0  0  0  0
   23.9380    1.1140   10.1730 C   0  0  0  0  0  0  0  0  0  0  0  0
   24.5610    1.9830    9.0870 C   0  0  0  0  0  0  0  0  0  0  0  0
   22.9370    1.9690   10.9510 C   0  0  0  0  0  0  0  0  0  0  0  0
   23.2540    0.0480    9.5300 O   0  0  0  0  0  0  0  0  0  0  0  0
   24.5640   -1.7280   11.9360 N   0  0  0  0  0  0  0  0  0  0  0  0
   25.1470   -2.4200   10.9690 C   0  0  0  0  0  0  0  0  0  0  0  0
   26.5460   -2.3960   11.0730 C   0  0  0  0  0  0  0  0  0  0  0  0
   27.3490   -3.0860   10.1710 C   0  0  0  0  0  0  0  0  0  0  0  0
   26.7450   -3.8450    9.1770 C   0  0  0  0  0  0  0  0  0  0  0  0
   25.3560   -3.8960    9.0930 C   0  0  0  0  0  0  0  0  0  0  0  0
   24.5430   -3.2000    9.9890 C   0  0  0  0  0  0  0  0  0  0  0  0
   20.0340   -6.7954   28.3485 H   0  0  0  0  0  0  0  0  0  0  0  0
   21.0135   -7.9485   27.3802 H   0  0  0  0  0  0  0  0  0  0  0  0
   21.4249   -6.2000   27.3802 H   0  0  0  0  0  0  0  0  0  0  0  0
   22.2457   -5.9696   25.9890 H   0  0  0  0  0  0  0  0  0  0  0  0
   18.4609   -6.5569   23.9807 H   0  0  0  0  0  0  0  0  0  0  0  0
   19.5192   -5.8602   21.8248 H   0  0  0  0  0  0  0  0  0  0  0  0
   25.2175   -4.5319   22.7356 H   0  0  0  0  0  0  0  0  0  0  0  0
   23.9380   -4.4233   20.5900 H   0  0  0  0  0  0  0  0  0  0  0  0
   22.7476   -5.3086   16.1191 H   0  0  0  0  0  0  0  0  0  0  0  0
   21.3866   -2.4580   19.9805 H   0  0  0  0  0  0  0  0  0  0  0  0
   22.1714   -1.3988   17.8558 H   0  0  0  0  0  0  0  0  0  0  0  0
   23.1666   -3.5246   14.9376 H   0  0  0  0  0  0  0  0  0  0  0  0
   23.8080    1.2261   14.9284 H   0  0  0  0  0  0  0  0  0  0  0  0
   24.6040    1.9302   13.4801 H   0  0  0  0  0  0  0  0  0  0  0  0
   22.8307    1.6436   13.4801 H   0  0  0  0  0  0  0  0  0  0  0  0
   25.7950    0.0188   10.4421 H   0  0  0  0  0  0  0  0  0  0  0  0
   25.4717    1.3498   11.6622 H   0  0  0  0  0  0  0  0  0  0  0  0
   25.1415    2.7927    9.5533 H   0  0  0  0  0  0  0  0  0  0  0  0
   25.2255    1.3685    8.4619 H   0  0  0  0  0  0  0  0  0  0  0  0
   23.7657    2.4151    8.4619 H   0  0  0  0  0  0  0  0  0  0  0  0
   23.0982    1.8313   12.0304 H   0  0  0  0  0  0  0  0  0  0  0  0
   23.0797    3.0283   10.6911 H   0  0  0  0  0  0  0  0  0  0  0  0
   21.9130    1.6624   10.6911 H   0  0  0  0  0  0  0  0  0  0  0  0
   22.8669   -0.5553   10.2129 H   0  0  0  0  0  0  0  0  0  0  0  0
   27.0168   -1.8204   11.8835 H   0  0  0  0  0  0  0  0  0  0  0  0
   28.4452   -3.0314   10.2438 H   0  0  0  0  0  0  0  0  0  0  0  0
   27.3620   -4.4042    8.4582 H   0  0  0  0  0  0  0  0  0  0  0  0
   24.8881   -4.4995    8.3013 H   0  0  0  0  0  0  0  0  0  0  0  0
   23.4471   -3.2671    9.9213 H   0  0  0  0  0  0  0  0  0  0  0  0
 32 31  1  0
 40 39  2  0
 40 41  1  0
 39 38  1  0
 34 31  1  0
 41 36  2  0
 38 37  2  0
 31 33  1  0
 31 30  1  0
 36 37  1  0
 36 35  1  0
 30 29  1  0
 35 29  1  0
 35 25  1  0
 29 27  1  0
 25 26  2  0
 25 24  1  0
 27 28  1  0
 27 24  2  0
 24 22  1  0
 22 21  1  0
 22 23  2  0
 21 20  1  0
 20 16  1  0
 20 19  2  0
 16 15  2  0
 19 18  1  0
 15 17  1  0
 15 14  1  0
 18 14  2  0
 14 13  1  0
 13 12  1  0
 12 11  2  0
 12  7  1  0
 11 10  1  0
  7  6  2  0
  7  8  1  0
 10  9  2  0
  6  5  1  0
  9  8  1  0
  8  4  2  0
  5  3  2  0
  4  3  1  0
  3  2  1  0
  2  1  1  0
  1 42  1  0
  1 43  1  0
  1 44  1  0
  4 45  1  0
  5 46  1  0
  6 47  1  0
 10 48  1  0
 11 49  1  0
 16 50  1  0
 18 51  1  0
 19 52  1  0
 21 53  1  0
 28 54  1  0
 28 55  1  0
 28 56  1  0
 30 57  1  0
 30 58  1  0
 32 59  1  0
 32 60  1  0
 32 61  1  0
 33 62  1  0
 33 63  1  0
 33 64  1  0
 34 65  1  0
 37 66  1  0
 38 67  1  0
 39 68  1  0
 40 69  1  0
 41 70  1  0
A    1
C16
A    2
O2
A    3
C2
A    4
C3
A    5
C1
A    6
C6
A    7
C5
A    8
C4
A    9
N1
A   10
C7
A   11
C8
A   12
C9
A   13
O1
A   14
C10
A   15
C11
A   16
C12
A   17
F1
A   18
C15
A   19
C14
A   20
C13
A   21
N2
A   22
C22
A   23
O5
A   24
C17
A   25
C19
A   26
O3
A   27
C18
A   28
C21
A   29
N3
A   30
C28
A   31
C29
A   32
C30
A   33
C31
A   34
O4
A   35
N4
A   36
C20
A   37
C23
A   38
C24
A   39
C25
A   40
C26
A   41
C27
M  END
