5T4B_75N_A_810
     RDKit          3D

 63 68  0  0  0  0  0  0  0  0999 V2000
   35.3410   48.1870   36.2920 C   0  0  0  0  0  0  0  0  0  0  0  0
   36.4560   47.9920   36.6900 C   0  0  0  0  0  0  0  0  0  0  0  0
   34.1260   53.4230   44.5620 C   0  0  0  0  0  0  0  0  0  0  0  0
   34.3820   53.4820   43.2050 C   0  0  0  0  0  0  0  0  0  0  0  0
   34.4770   52.3030   45.2980 C   0  0  0  0  0  0  0  0  0  0  0  0
   34.9910   52.4140   42.5750 C   0  0  0  0  0  0  0  0  0  0  0  0
   35.0740   51.2330   44.6530 C   0  0  0  0  0  0  0  0  0  0  0  0
   35.3400   51.2790   43.2890 C   0  0  0  0  0  0  0  0  0  0  0  0
   38.4360   48.6140   39.3660 C   0  0  0  0  0  0  0  0  0  0  0  0
   35.4060   50.0690   45.3240 C   0  0  0  0  0  0  0  0  0  0  0  0
   39.5490   49.3060   39.7570 C   0  0  0  0  0  0  0  0  0  0  0  0
   36.1490   49.1430   43.3780 C   0  0  0  0  0  0  0  0  0  0  0  0
   39.7090   49.2830   37.6520 C   0  0  0  0  0  0  0  0  0  0  0  0
   37.4130   48.0980   40.2530 C   0  0  0  0  0  0  0  0  0  0  0  0
   38.8560   48.9910   42.0460 C   0  0  0  0  0  0  0  0  0  0  0  0
   41.3150   51.6100   36.3250 C   0  0  0  0  0  0  0  0  0  0  0  0
   40.2910   52.2010   35.3630 C   0  0  0  0  0  0  0  0  0  0  0  0
   41.4080   50.0860   36.1660 C   0  0  0  0  0  0  0  0  0  0  0  0
   40.9600   50.0070   41.8200 C   0  0  0  0  0  0  0  0  0  0  0  0
   39.0830   50.0250   35.4320 C   0  0  0  0  0  0  0  0  0  0  0  0
   40.5720   49.9080   43.2930 C   0  0  0  0  0  0  0  0  0  0  0  0
   38.9520   51.5370   35.5970 C   0  0  0  0  0  0  0  0  0  0  0  0
   33.9760   48.3910   35.7930 C   0  0  0  0  0  0  0  0  0  0  0  0
   35.1200   49.9030   46.7940 C   0  0  0  0  0  0  0  0  0  0  0  0
   37.8300   47.6950   37.1000 C   0  0  0  0  0  0  0  0  0  0  0  0
   36.7380   47.9550   42.6740 C   0  0  0  0  0  0  0  0  0  0  0  0
   35.9050   50.2420   42.6540 N   0  0  0  0  0  0  0  0  0  0  0  0
   35.9280   49.0040   44.6890 N   0  0  0  0  0  0  0  0  0  0  0  0
   40.3390   49.7290   38.7210 N   0  0  0  0  0  0  0  0  0  0  0  0
   38.5430   48.6150   37.9970 N   0  0  0  0  0  0  0  0  0  0  0  0
   39.7640   49.5170   41.1520 N   0  0  0  0  0  0  0  0  0  0  0  0
   40.0890   49.4750   36.3610 N   0  0  0  0  0  0  0  0  0  0  0  0
   37.7020   48.3510   41.6350 N   0  0  0  0  0  0  0  0  0  0  0  0
   39.2620   49.2340   43.3280 N   0  0  0  0  0  0  0  0  0  0  0  0
   37.9580   52.0770   34.6290 N   0  0  0  0  0  0  0  0  0  0  0  0
   36.3430   47.6170   39.9210 O   0  0  0  0  0  0  0  0  0  0  0  0
   33.6391   54.2732   45.0622 H   0  0  0  0  0  0  0  0  0  0  0  0
   34.1018   54.3761   42.6288 H   0  0  0  0  0  0  0  0  0  0  0  0
   34.2840   52.2643   46.3802 H   0  0  0  0  0  0  0  0  0  0  0  0
   35.2008   52.4651   41.4964 H   0  0  0  0  0  0  0  0  0  0  0  0
   42.3001   52.0535   36.1180 H   0  0  0  0  0  0  0  0  0  0  0  0
   40.9980   51.8351   37.3540 H   0  0  0  0  0  0  0  0  0  0  0  0
   40.6140   52.0238   34.3265 H   0  0  0  0  0  0  0  0  0  0  0  0
   40.2029   53.2840   35.5345 H   0  0  0  0  0  0  0  0  0  0  0  0
   41.7731   49.8476   35.1561 H   0  0  0  0  0  0  0  0  0  0  0  0
   42.1029   49.6882   36.9202 H   0  0  0  0  0  0  0  0  0  0  0  0
   41.9032   50.3590   41.3767 H   0  0  0  0  0  0  0  0  0  0  0  0
   38.1097   49.5554   35.6372 H   0  0  0  0  0  0  0  0  0  0  0  0
   39.4051   49.8123   34.4019 H   0  0  0  0  0  0  0  0  0  0  0  0
   41.1533   50.2674   44.1549 H   0  0  0  0  0  0  0  0  0  0  0  0
   38.6117   51.7489   36.6214 H   0  0  0  0  0  0  0  0  0  0  0  0
   33.2862   48.4941   36.6436 H   0  0  0  0  0  0  0  0  0  0  0  0
   33.9421   49.3042   35.1807 H   0  0  0  0  0  0  0  0  0  0  0  0
   33.6766   47.5276   35.1807 H   0  0  0  0  0  0  0  0  0  0  0  0
   35.9255   50.3705   47.3793 H   0  0  0  0  0  0  0  0  0  0  0  0
   34.1620   50.3854   47.0379 H   0  0  0  0  0  0  0  0  0  0  0  0
   35.0637   48.8319   47.0379 H   0  0  0  0  0  0  0  0  0  0  0  0
   37.8075   46.7161   37.6013 H   0  0  0  0  0  0  0  0  0  0  0  0
   38.3964   47.7680   36.1598 H   0  0  0  0  0  0  0  0  0  0  0  0
   35.9252   47.3818   42.2042 H   0  0  0  0  0  0  0  0  0  0  0  0
   37.2730   47.3491   43.4202 H   0  0  0  0  0  0  0  0  0  0  0  0
   37.1740   52.5029   35.1436 H   0  0  0  0  0  0  0  0  0  0  0  0
   38.4076   52.7898   34.0369 H   0  0  0  0  0  0  0  0  0  0  0  0
 35 22  1  0
 17 22  1  0
 17 16  1  0
 20 22  1  0
 20 32  1  0
 23  1  1  0
 18 16  1  0
 18 32  1  0
  1  2  3  0
 32 13  1  0
  2 25  1  0
 25 30  1  0
 13 30  1  0
 13 29  2  0
 30  9  1  0
 29 11  1  0
  9 11  2  0
  9 14  1  0
 11 31  1  0
 36 14  2  0
 14 33  1  0
 31 19  1  0
 31 15  1  0
 33 15  1  0
 33 26  1  0
 19 21  2  0
 15 34  2  0
  6  4  1  0
  6  8  2  0
 27  8  1  0
 27 12  2  0
 26 12  1  0
  4  3  2  0
  8  7  1  0
 21 34  1  0
 12 28  1  0
  3  5  1  0
  7  5  2  0
  7 10  1  0
 28 10  2  0
 10 24  1  0
  3 37  1  0
  4 38  1  0
  5 39  1  0
  6 40  1  0
 16 41  1  0
 16 42  1  0
 17 43  1  0
 17 44  1  0
 18 45  1  0
 18 46  1  0
 19 47  1  0
 20 48  1  0
 20 49  1  0
 21 50  1  0
 22 51  1  0
 23 52  1  0
 23 53  1  0
 23 54  1  0
 24 55  1  0
 24 56  1  0
 24 57  1  0
 25 58  1  0
 25 59  1  0
 26 60  1  0
 26 61  1  0
 35 62  1  0
 35 63  1  0
A    1
C1
A    2
C2
A    3
C3
A    4
C4
A    5
C5
A    6
C6
A    7
C7
A    8
C8
A    9
C9
A   10
C10
A   11
C11
A   12
C12
A   13
C13
A   14
C14
A   15
C15
A   16
C16
A   17
C17
A   18
C18
A   19
C19
A   20
C20
A   21
C21
A   22
C22
A   23
C23
A   24
C24
A   25
C25
A   26
C26
A   27
N27
A   28
N28
A   29
N29
A   30
N30
A   31
N31
A   32
N32
A   33
N33
A   34
N34
A   35
N35
A   36
O36
M  END
