5T4E_75L_A_810
     RDKit          3D

 68 73  0  0  0  0  0  0  0  0999 V2000
   38.9680   49.1200   42.1000 C   0  0  0  0  0  0  0  0  0  0  0  0
   39.7040   49.5340   39.9020 C   0  0  0  0  0  0  0  0  0  0  0  0
   37.8800   48.4520   41.6540 N   0  0  0  0  0  0  0  0  0  0  0  0
   40.4000   50.0220   43.9890 C   0  0  0  0  0  0  0  0  0  0  0  0
   40.8320   51.1400   43.0040 C   0  0  0  0  0  0  0  0  0  0  0  0
   41.1720   50.4100   41.7120 C   0  0  0  0  0  0  0  0  0  0  0  0
   38.1100   47.8210   37.1520 C   0  0  0  0  0  0  0  0  0  0  0  0
   36.7200   48.1950   36.7800 C   0  0  0  0  0  0  0  0  0  0  0  0
   35.6250   48.4590   36.4180 C   0  0  0  0  0  0  0  0  0  0  0  0
   34.2350   48.6920   35.9480 C   0  0  0  0  0  0  0  0  0  0  0  0
   39.9350   49.7010   41.2440 N   0  0  0  0  0  0  0  0  0  0  0  0
   39.3790   50.2860   35.5370 C   0  0  0  0  0  0  0  0  0  0  0  0
   40.5990   52.5000   35.5460 C   0  0  0  0  0  0  0  0  0  0  0  0
   41.6410   51.8780   36.5440 C   0  0  0  0  0  0  0  0  0  0  0  0
   37.6170   48.2790   40.3300 C   0  0  0  0  0  0  0  0  0  0  0  0
   38.6080   48.8310   39.4300 C   0  0  0  0  0  0  0  0  0  0  0  0
   40.5130   49.9850   38.8950 N   0  0  0  0  0  0  0  0  0  0  0  0
   39.9320   49.5330   37.7780 C   0  0  0  0  0  0  0  0  0  0  0  0
   38.7550   48.8080   38.0680 N   0  0  0  0  0  0  0  0  0  0  0  0
   36.6450   47.6920   39.9500 O   0  0  0  0  0  0  0  0  0  0  0  0
   39.2330   49.2800   43.4460 N   0  0  0  0  0  0  0  0  0  0  0  0
   40.3780   49.7440   36.5130 N   0  0  0  0  0  0  0  0  0  0  0  0
   39.2200   51.8210   35.6860 C   0  0  0  0  0  0  0  0  0  0  0  0
   41.7370   50.3050   36.3560 C   0  0  0  0  0  0  0  0  0  0  0  0
   38.1660   52.2860   34.7340 N   0  0  0  0  0  0  0  0  0  0  0  0
   38.3090   48.6250   44.4040 C   0  0  0  0  0  0  0  0  0  0  0  0
   37.3570   49.5140   45.0790 C   0  0  0  0  0  0  0  0  0  0  0  0
   37.2170   49.2020   46.3880 N   0  0  0  0  0  0  0  0  0  0  0  0
   35.8370   51.2770   45.1600 C   0  0  0  0  0  0  0  0  0  0  0  0
   36.7120   50.5060   44.4210 N   0  0  0  0  0  0  0  0  0  0  0  0
   35.5970   51.0480   46.5370 C   0  0  0  0  0  0  0  0  0  0  0  0
   36.3300   49.9700   47.1210 C   0  0  0  0  0  0  0  0  0  0  0  0
   36.1650   49.6590   48.4930 C   0  0  0  0  0  0  0  0  0  0  0  0
   35.2690   50.4170   49.2750 C   0  0  0  0  0  0  0  0  0  0  0  0
   34.5450   51.4870   48.6850 C   0  0  0  0  0  0  0  0  0  0  0  0
   34.7000   51.8170   47.3460 C   0  0  0  0  0  0  0  0  0  0  0  0
   35.1580   52.4050   44.4200 C   0  0  0  0  0  0  0  0  0  0  0  0
   41.2375   49.3241   44.1359 H   0  0  0  0  0  0  0  0  0  0  0  0
   40.1184   50.4796   44.9489 H   0  0  0  0  0  0  0  0  0  0  0  0
   41.7116   51.6768   43.3888 H   0  0  0  0  0  0  0  0  0  0  0  0
   40.0439   51.8938   42.8600 H   0  0  0  0  0  0  0  0  0  0  0  0
   41.9745   49.6803   41.8950 H   0  0  0  0  0  0  0  0  0  0  0  0
   41.5174   51.1226   40.9486 H   0  0  0  0  0  0  0  0  0  0  0  0
   38.0874   46.8415   37.6521 H   0  0  0  0  0  0  0  0  0  0  0  0
   38.7028   47.7959   36.2257 H   0  0  0  0  0  0  0  0  0  0  0  0
   33.5684   48.8037   36.8158 H   0  0  0  0  0  0  0  0  0  0  0  0
   34.2022   49.6082   35.3401 H   0  0  0  0  0  0  0  0  0  0  0  0
   33.9053   47.8366   35.3401 H   0  0  0  0  0  0  0  0  0  0  0  0
   38.4057   49.8060   35.7169 H   0  0  0  0  0  0  0  0  0  0  0  0
   39.7370   50.0716   34.5192 H   0  0  0  0  0  0  0  0  0  0  0  0
   40.9628   52.3650   34.5167 H   0  0  0  0  0  0  0  0  0  0  0  0
   40.4869   53.5690   35.7800 H   0  0  0  0  0  0  0  0  0  0  0  0
   42.6291   52.3239   36.3571 H   0  0  0  0  0  0  0  0  0  0  0  0
   41.3120   52.0894   37.5721 H   0  0  0  0  0  0  0  0  0  0  0  0
   38.8669   52.1113   36.6865 H   0  0  0  0  0  0  0  0  0  0  0  0
   42.4075   49.8781   37.1163 H   0  0  0  0  0  0  0  0  0  0  0  0
   42.1389   50.0621   35.3613 H   0  0  0  0  0  0  0  0  0  0  0  0
   37.3579   52.6425   35.2639 H   0  0  0  0  0  0  0  0  0  0  0  0
   38.5463   53.0374   34.1410 H   0  0  0  0  0  0  0  0  0  0  0  0
   37.7319   47.8678   43.8530 H   0  0  0  0  0  0  0  0  0  0  0  0
   38.9462   48.2094   45.1985 H   0  0  0  0  0  0  0  0  0  0  0  0
   36.7318   48.8319   48.9454 H   0  0  0  0  0  0  0  0  0  0  0  0
   35.1311   50.1799   50.3402 H   0  0  0  0  0  0  0  0  0  0  0  0
   33.8451   52.0677   49.3038 H   0  0  0  0  0  0  0  0  0  0  0  0
   34.1408   52.6588   46.9116 H   0  0  0  0  0  0  0  0  0  0  0  0
   34.7311   53.1142   45.1444 H   0  0  0  0  0  0  0  0  0  0  0  0
   35.8937   52.9244   43.7883 H   0  0  0  0  0  0  0  0  0  0  0  0
   34.3547   51.9980   43.7883 H   0  0  0  0  0  0  0  0  0  0  0  0
 25 23  1  0
 12 23  1  0
 12 22  1  0
 13 23  1  0
 13 14  1  0
 10  9  1  0
 24 22  1  0
 24 14  1  0
  9  8  3  0
 22 18  1  0
  8  7  1  0
  7 19  1  0
 18 19  1  0
 18 17  2  0
 19 16  1  0
 17  2  1  0
 16  2  2  0
 16 15  1  0
  2 11  1  0
 20 15  2  0
 15  3  1  0
 11  6  1  0
 11  1  1  0
  3  1  2  0
  6  5  1  0
  1 21  1  0
  5  4  1  0
 21  4  1  0
 21 26  1  0
 26 27  1  0
 37 29  1  0
 30 27  1  0
 30 29  2  0
 27 28  2  0
 29 31  1  0
 28 32  1  0
 31 32  2  0
 31 36  1  0
 32 33  1  0
 36 35  2  0
 33 34  2  0
 35 34  1  0
  4 38  1  0
  4 39  1  0
  5 40  1  0
  5 41  1  0
  6 42  1  0
  6 43  1  0
  7 44  1  0
  7 45  1  0
 10 46  1  0
 10 47  1  0
 10 48  1  0
 12 49  1  0
 12 50  1  0
 13 51  1  0
 13 52  1  0
 14 53  1  0
 14 54  1  0
 23 55  1  0
 24 56  1  0
 24 57  1  0
 25 58  1  0
 25 59  1  0
 26 60  1  0
 26 61  1  0
 33 62  1  0
 34 63  1  0
 35 64  1  0
 36 65  1  0
 37 66  1  0
 37 67  1  0
 37 68  1  0
A    1
C2
A    2
C4
A    3
N1
A    4
C12
A    5
C13
A    6
C14
A    7
C15
A    8
C16
A    9
C17
A   10
C18
A   11
N3
A   12
C20
A   13
C22
A   14
C23
A   15
C6
A   16
C5
A   17
N7
A   18
C8
A   19
N9
A   20
O10
A   21
N11
A   22
N19
A   23
C21
A   24
C24
A   25
N25
A   26
C26
A   27
C27
A   28
N28
A   29
C29
A   30
N30
A   31
C31
A   32
C32
A   33
C33
A   34
C34
A   35
C35
A   36
C36
A   37
C37
M  END
