5T4F_75M_A_812
     RDKit          3D

 57 61  0  0  0  0  0  0  0  0999 V2000
   39.7490   49.3740   39.9600 C   0  0  0  0  0  0  0  0  0  0  0  0
   37.5500   48.2340   40.4450 C   0  0  0  0  0  0  0  0  0  0  0  0
   37.8710   48.4160   41.8520 N   0  0  0  0  0  0  0  0  0  0  0  0
   39.9060   49.4090   37.8610 C   0  0  0  0  0  0  0  0  0  0  0  0
   38.5770   48.7490   39.5320 C   0  0  0  0  0  0  0  0  0  0  0  0
   40.5230   49.8210   38.9720 N   0  0  0  0  0  0  0  0  0  0  0  0
   38.6660   48.7510   38.1530 N   0  0  0  0  0  0  0  0  0  0  0  0
   40.0320   49.4900   41.3560 N   0  0  0  0  0  0  0  0  0  0  0  0
   39.0840   49.0130   42.2670 C   0  0  0  0  0  0  0  0  0  0  0  0
   39.4900   49.2120   43.5260 N   0  0  0  0  0  0  0  0  0  0  0  0
   40.8560   49.8470   43.5210 C   0  0  0  0  0  0  0  0  0  0  0  0
   41.2020   50.0670   42.0290 C   0  0  0  0  0  0  0  0  0  0  0  0
   36.5100   47.7360   40.1120 O   0  0  0  0  0  0  0  0  0  0  0  0
   38.1080   47.6730   37.2640 C   0  0  0  0  0  0  0  0  0  0  0  0
   36.7260   47.9590   36.8010 C   0  0  0  0  0  0  0  0  0  0  0  0
   35.6280   48.2120   36.3770 C   0  0  0  0  0  0  0  0  0  0  0  0
   34.2130   48.4660   35.9450 C   0  0  0  0  0  0  0  0  0  0  0  0
   40.3510   49.6020   36.5660 N   0  0  0  0  0  0  0  0  0  0  0  0
   39.3510   50.1080   35.5680 C   0  0  0  0  0  0  0  0  0  0  0  0
   39.1880   51.6460   35.6780 C   0  0  0  0  0  0  0  0  0  0  0  0
   40.5470   52.3500   35.5310 C   0  0  0  0  0  0  0  0  0  0  0  0
   41.6530   51.7310   36.4670 C   0  0  0  0  0  0  0  0  0  0  0  0
   41.7370   50.1480   36.3590 C   0  0  0  0  0  0  0  0  0  0  0  0
   38.1510   52.1320   34.6960 N   0  0  0  0  0  0  0  0  0  0  0  0
   36.9090   47.9540   42.9150 C   0  0  0  0  0  0  0  0  0  0  0  0
   36.3300   49.1820   43.6040 C   0  0  0  0  0  0  0  0  0  0  0  0
   36.2530   49.1510   45.0150 C   0  0  0  0  0  0  0  0  0  0  0  0
   35.7000   50.2550   45.7210 C   0  0  0  0  0  0  0  0  0  0  0  0
   35.3310   51.3960   45.0140 C   0  0  0  0  0  0  0  0  0  0  0  0
   35.4460   51.4670   43.5800 C   0  0  0  0  0  0  0  0  0  0  0  0
   35.9320   50.3500   42.8970 C   0  0  0  0  0  0  0  0  0  0  0  0
   34.8010   52.4780   45.7930 C   0  0  0  0  0  0  0  0  0  0  0  0
   34.3750   53.3460   46.4180 N   0  0  0  0  0  0  0  0  0  0  0  0
   41.4762   50.1006   44.3934 H   0  0  0  0  0  0  0  0  0  0  0  0
   42.0940   50.5348   41.5870 H   0  0  0  0  0  0  0  0  0  0  0  0
   38.1011   46.7260   37.8237 H   0  0  0  0  0  0  0  0  0  0  0  0
   38.7489   47.6185   36.3716 H   0  0  0  0  0  0  0  0  0  0  0  0
   33.5736   48.5808   36.8327 H   0  0  0  0  0  0  0  0  0  0  0  0
   34.1729   49.3857   35.3429 H   0  0  0  0  0  0  0  0  0  0  0  0
   33.8556   47.6177   35.3429 H   0  0  0  0  0  0  0  0  0  0  0  0
   38.3793   49.6285   35.7573 H   0  0  0  0  0  0  0  0  0  0  0  0
   39.7097   49.8643   34.5571 H   0  0  0  0  0  0  0  0  0  0  0  0
   38.8180   51.9059   36.6808 H   0  0  0  0  0  0  0  0  0  0  0  0
   40.8791   52.2607   34.4861 H   0  0  0  0  0  0  0  0  0  0  0  0
   40.4116   53.4014   35.8246 H   0  0  0  0  0  0  0  0  0  0  0  0
   42.6285   52.1545   36.1858 H   0  0  0  0  0  0  0  0  0  0  0  0
   41.3842   51.9779   37.5047 H   0  0  0  0  0  0  0  0  0  0  0  0
   42.1089   49.8594   35.3648 H   0  0  0  0  0  0  0  0  0  0  0  0
   42.4267   49.7460   37.1158 H   0  0  0  0  0  0  0  0  0  0  0  0
   37.3426   52.5109   35.2097 H   0  0  0  0  0  0  0  0  0  0  0  0
   38.5581   52.8700   34.1039 H   0  0  0  0  0  0  0  0  0  0  0  0
   36.0988   47.3695   42.4545 H   0  0  0  0  0  0  0  0  0  0  0  0
   37.4301   47.3197   43.6472 H   0  0  0  0  0  0  0  0  0  0  0  0
   36.6206   48.2734   45.5669 H   0  0  0  0  0  0  0  0  0  0  0  0
   35.5656   50.2078   46.8117 H   0  0  0  0  0  0  0  0  0  0  0  0
   35.1581   52.3787   43.0361 H   0  0  0  0  0  0  0  0  0  0  0  0
   36.0078   50.3739   41.7999 H   0  0  0  0  0  0  0  0  0  0  0  0
 24 20  1  0
 21 20  1  0
 21 22  1  0
 19 20  1  0
 19 18  1  0
 17 16  1  0
 23 22  1  0
 23 18  1  0
 16 15  3  0
 18  4  1  0
 15 14  1  0
 14  7  1  0
  4  7  1  0
  4  6  2  0
  7  5  1  0
  6  1  1  0
  5  1  2  0
  5  2  1  0
  1  8  1  0
 13  2  2  0
  2  3  1  0
  8 12  1  0
  8  9  1  0
  3  9  1  0
  3 25  1  0
 12 11  2  0
  9 10  2  0
 31 30  2  0
 31 26  1  0
 25 26  1  0
 11 10  1  0
 30 29  1  0
 26 27  2  0
 29 28  2  0
 29 32  1  0
 27 28  1  0
 32 33  3  0
 11 34  1  0
 12 35  1  0
 14 36  1  0
 14 37  1  0
 17 38  1  0
 17 39  1  0
 17 40  1  0
 19 41  1  0
 19 42  1  0
 20 43  1  0
 21 44  1  0
 21 45  1  0
 22 46  1  0
 22 47  1  0
 23 48  1  0
 23 49  1  0
 24 50  1  0
 24 51  1  0
 25 52  1  0
 25 53  1  0
 27 54  1  0
 28 55  1  0
 30 56  1  0
 31 57  1  0
A    1
C4
A    2
C2
A    3
N1
A    4
C6
A    5
C3
A    6
N5
A    7
N7
A    8
N8
A    9
C9
A   10
N10
A   11
C11
A   12
C12
A   13
O13
A   14
C14
A   15
C15
A   16
C16
A   17
C17
A   18
N18
A   19
C19
A   20
C20
A   21
C21
A   22
C22
A   23
C23
A   24
N24
A   25
C25
A   26
C26
A   27
C27
A   28
C28
A   29
C29
A   30
C30
A   31
C31
A   32
C32
A   33
N33
M  END
