1D1J_PG6_C_901
     RDKit          3D

 44 43  0  0  0  0  0  0  0  0999 V2000
   37.8180   33.8670   77.1580 C   0  0  0  0  0  0  0  0  0  0  0  0
   38.9500   34.2990   77.9200 O   0  0  0  0  0  0  0  0  0  0  0  0
   38.7110   35.6080   78.4410 C   0  0  0  0  0  0  0  0  0  0  0  0
   39.4610   35.7880   79.7790 C   0  0  0  0  0  0  0  0  0  0  0  0
   38.5880   35.4690   80.8720 O   0  0  0  0  0  0  0  0  0  0  0  0
   39.1120   36.0140   82.1000 C   0  0  0  0  0  0  0  0  0  0  0  0
   38.8510   35.0460   83.2780 C   0  0  0  0  0  0  0  0  0  0  0  0
   39.6240   33.8550   83.0890 O   0  0  0  0  0  0  0  0  0  0  0  0
   39.5520   33.0180   84.2420 C   0  0  0  0  0  0  0  0  0  0  0  0
   40.5940   31.8870   84.1110 C   0  0  0  0  0  0  0  0  0  0  0  0
   40.2760   31.0750   82.9800 O   0  0  0  0  0  0  0  0  0  0  0  0
   41.0760   29.8790   82.9640 C   0  0  0  0  0  0  0  0  0  0  0  0
   41.6480   29.6300   81.5430 C   0  0  0  0  0  0  0  0  0  0  0  0
   40.5920   29.6130   80.5820 O   0  0  0  0  0  0  0  0  0  0  0  0
   41.1080   29.2650   79.2860 C   0  0  0  0  0  0  0  0  0  0  0  0
   40.5850   30.2590   78.2200 C   0  0  0  0  0  0  0  0  0  0  0  0
   41.6370   30.5630   77.2920 O   0  0  0  0  0  0  0  0  0  0  0  0
   41.6030   31.9540   76.9420 C   0  0  0  0  0  0  0  0  0  0  0  0
   37.0122   33.5595   77.8407 H   0  0  0  0  0  0  0  0  0  0  0  0
   37.4657   34.6939   76.5238 H   0  0  0  0  0  0  0  0  0  0  0  0
   38.1062   33.0156   76.5238 H   0  0  0  0  0  0  0  0  0  0  0  0
   39.0675   36.3580   77.7196 H   0  0  0  0  0  0  0  0  0  0  0  0
   37.6320   35.7379   78.6111 H   0  0  0  0  0  0  0  0  0  0  0  0
   40.3338   35.1188   79.8014 H   0  0  0  0  0  0  0  0  0  0  0  0
   39.7926   36.8327   79.8719 H   0  0  0  0  0  0  0  0  0  0  0  0
   40.1956   36.1702   81.9932 H   0  0  0  0  0  0  0  0  0  0  0  0
   38.6093   36.9702   82.3076 H   0  0  0  0  0  0  0  0  0  0  0  0
   39.1434   35.5284   84.2223 H   0  0  0  0  0  0  0  0  0  0  0  0
   37.7818   34.7904   83.3164 H   0  0  0  0  0  0  0  0  0  0  0  0
   39.7650   33.6126   85.1426 H   0  0  0  0  0  0  0  0  0  0  0  0
   38.5439   32.5855   84.3235 H   0  0  0  0  0  0  0  0  0  0  0  0
   41.5948   32.3240   83.9788 H   0  0  0  0  0  0  0  0  0  0  0  0
   40.5808   31.2693   85.0211 H   0  0  0  0  0  0  0  0  0  0  0  0
   41.9078   29.9897   83.6753 H   0  0  0  0  0  0  0  0  0  0  0  0
   40.4456   29.0241   83.2498 H   0  0  0  0  0  0  0  0  0  0  0  0
   42.3561   30.4331   81.2905 H   0  0  0  0  0  0  0  0  0  0  0  0
   42.1620   28.6576   81.5285 H   0  0  0  0  0  0  0  0  0  0  0  0
   42.2071   29.3024   79.3100 H   0  0  0  0  0  0  0  0  0  0  0  0
   40.7734   28.2498   79.0262 H   0  0  0  0  0  0  0  0  0  0  0  0
   39.7396   29.8069   77.6806 H   0  0  0  0  0  0  0  0  0  0  0  0
   40.2527   31.1843   78.7133 H   0  0  0  0  0  0  0  0  0  0  0  0
   41.5881   32.5624   77.8583 H   0  0  0  0  0  0  0  0  0  0  0  0
   42.4953   32.2050   76.3497 H   0  0  0  0  0  0  0  0  0  0  0  0
   40.6995   32.1611   76.3497 H   0  0  0  0  0  0  0  0  0  0  0  0
  1  2  1  0
  2  3  1  0
  3  4  1  0
  4  5  1  0
  5  6  1  0
  6  7  1  0
  7  8  1  0
  8  9  1  0
  9 10  1  0
 10 11  1  0
 11 12  1  0
 12 13  1  0
 13 14  1  0
 14 15  1  0
 15 16  1  0
 16 17  1  0
 17 18  1  0
  1 19  1  0
  1 20  1  0
  1 21  1  0
  3 22  1  0
  3 23  1  0
  4 24  1  0
  4 25  1  0
  6 26  1  0
  6 27  1  0
  7 28  1  0
  7 29  1  0
  9 30  1  0
  9 31  1  0
 10 32  1  0
 10 33  1  0
 12 34  1  0
 12 35  1  0
 13 36  1  0
 13 37  1  0
 15 38  1  0
 15 39  1  0
 16 40  1  0
 16 41  1  0
 18 42  1  0
 18 43  1  0
 18 44  1  0
A    1
C1
A    2
O1
A    3
C2
A    4
C3
A    5
O2
A    6
C4
A    7
C5
A    8
O3
A    9
C6
A   10
C7
A   11
O4
A   12
C8
A   13
C9
A   14
O5
A   15
C10
A   16
C11
A   17
O6
A   18
C12
M  END
