2F64_12Q_A_472
     RDKit          3D

 21 22  0  0  0  0  0  0  0  0999 V2000
  -28.8080    4.8350  -26.0860 C   0  0  0  0  0  0  0  0  0  0  0  0
  -27.4450    4.8590  -25.5190 N   0  0  0  0  0  0  0  0  0  0  0  0
  -26.8430    6.0820  -25.1750 C   0  0  0  0  0  0  0  0  0  0  0  0
  -27.5150    7.2900  -25.3630 C   0  0  0  0  0  0  0  0  0  0  0  0
  -26.9090    8.4930  -25.0200 C   0  0  0  0  0  0  0  0  0  0  0  0
  -25.6240    8.4930  -24.4860 C   0  0  0  0  0  0  0  0  0  0  0  0
  -24.9500    7.2910  -24.2960 C   0  0  0  0  0  0  0  0  0  0  0  0
  -25.5540    6.0870  -24.6380 C   0  0  0  0  0  0  0  0  0  0  0  0
  -24.8700    4.8910  -24.4440 C   0  0  0  0  0  0  0  0  0  0  0  0
  -25.4660    3.6830  -24.7870 C   0  0  0  0  0  0  0  0  0  0  0  0
  -26.7500    3.6540  -25.3200 C   0  0  0  0  0  0  0  0  0  0  0  0
  -27.2620    2.5740  -25.6140 O   0  0  0  0  0  0  0  0  0  0  0  0
  -29.5447    4.8220  -25.2692 H   0  0  0  0  0  0  0  0  0  0  0  0
  -28.9632    5.7306  -26.7056 H   0  0  0  0  0  0  0  0  0  0  0  0
  -28.9316    3.9345  -26.7056 H   0  0  0  0  0  0  0  0  0  0  0  0
  -28.5307    7.2905  -25.7853 H   0  0  0  0  0  0  0  0  0  0  0  0
  -27.4438    9.4424  -25.1703 H   0  0  0  0  0  0  0  0  0  0  0  0
  -25.1413    9.4433  -24.2142 H   0  0  0  0  0  0  0  0  0  0  0  0
  -23.9345    7.2935  -23.8732 H   0  0  0  0  0  0  0  0  0  0  0  0
  -23.8557    4.9014  -24.0184 H   0  0  0  0  0  0  0  0  0  0  0  0
  -24.9172    2.7418  -24.6355 H   0  0  0  0  0  0  0  0  0  0  0  0
  1  2  1  0
  2  3  1  0
  2 11  1  0
  3  4  2  0
  3  8  1  0
  4  5  1  0
  5  6  2  0
  6  7  1  0
  7  8  2  0
  8  9  1  0
  9 10  2  0
 10 11  1  0
 11 12  2  0
  1 13  1  0
  1 14  1  0
  1 15  1  0
  4 16  1  0
  5 17  1  0
  6 18  1  0
  7 19  1  0
  9 20  1  0
 10 21  1  0
A    1
CAH
A    2
NAC
A    3
CAA
A    4
CAD
A    5
CAI
A    6
CAK
A    7
CAF
A    8
CAB
A    9
CAE
A   10
CAJ
A   11
CAG
A   12
OAL
M  END
