5T4V_N48_A_801
     RDKit          3D

 44 46  0  0  0  0  0  0  0  0999 V2000
   -0.0750  -15.2780  -14.4840 O   0  0  0  0  0  0  0  0  0  0  0  0
   -0.7200  -15.8910  -13.6460 C   0  0  0  0  0  0  0  0  0  0  0  0
   -0.5970  -17.2700  -13.3980 C   0  0  0  0  0  0  0  0  0  0  0  0
   -1.3390  -17.9860  -12.5420 C   0  0  0  0  0  0  0  0  0  0  0  0
   -1.1680  -19.4730  -12.4240 C   0  0  0  0  0  0  0  0  0  0  0  0
   -1.6980  -15.2410  -12.9060 N   0  0  0  0  0  0  0  0  0  0  0  0
   -1.9080  -13.8220  -13.1800 C   0  0  0  0  0  0  0  0  0  0  0  0
   -2.4870  -15.9160  -11.9320 C   0  0  0  0  0  0  0  0  0  0  0  0
   -3.4070  -15.2030  -11.1730 C   0  0  0  0  0  0  0  0  0  0  0  0
   -4.1420  -15.8650  -10.1950 C   0  0  0  0  0  0  0  0  0  0  0  0
   -5.0240  -15.2410   -9.3570 O   0  0  0  0  0  0  0  0  0  0  0  0
   -4.7720  -13.8690   -9.0550 C   0  0  0  0  0  0  0  0  0  0  0  0
   -2.3090  -17.2960  -11.7310 C   0  0  0  0  0  0  0  0  0  0  0  0
   -3.0480  -17.9360  -10.7310 C   0  0  0  0  0  0  0  0  0  0  0  0
   -3.9650  -17.2340   -9.9670 C   0  0  0  0  0  0  0  0  0  0  0  0
   -4.7190  -17.9290   -8.9410 N   0  0  0  0  0  0  0  0  0  0  0  0
   -5.2110  -19.4930   -8.9840 S   0  0  0  0  0  0  0  0  0  0  0  0
   -4.1010  -20.3840   -9.1220 O   0  0  0  0  0  0  0  0  0  0  0  0
   -6.0350  -19.5730   -7.8140 O   0  0  0  0  0  0  0  0  0  0  0  0
   -6.2410  -19.7290  -10.4010 C   0  0  0  0  0  0  0  0  0  0  0  0
   -7.0510  -18.7000  -10.8370 C   0  0  0  0  0  0  0  0  0  0  0  0
   -7.8410  -18.8810  -11.9560 C   0  0  0  0  0  0  0  0  0  0  0  0
   -7.8360  -20.0960  -12.6330 C   0  0  0  0  0  0  0  0  0  0  0  0
   -8.6320  -20.2550  -13.8160 C   0  0  0  0  0  0  0  0  0  0  0  0
   -9.2660  -20.3360  -14.7590 N   0  0  0  0  0  0  0  0  0  0  0  0
   -7.0180  -21.1140  -12.2000 C   0  0  0  0  0  0  0  0  0  0  0  0
   -6.2100  -20.9360  -11.0860 C   0  0  0  0  0  0  0  0  0  0  0  0
    0.1799  -17.8107  -13.9584 H   0  0  0  0  0  0  0  0  0  0  0  0
   -1.1356  -19.7552  -11.3613 H   0  0  0  0  0  0  0  0  0  0  0  0
   -2.0138  -19.9792  -12.9121 H   0  0  0  0  0  0  0  0  0  0  0  0
   -0.2293  -19.7740  -12.9121 H   0  0  0  0  0  0  0  0  0  0  0  0
   -1.9892  -13.2732  -12.2301 H   0  0  0  0  0  0  0  0  0  0  0  0
   -1.0580  -13.4305  -13.7581 H   0  0  0  0  0  0  0  0  0  0  0  0
   -2.8350  -13.6935  -13.7581 H   0  0  0  0  0  0  0  0  0  0  0  0
   -3.5526  -14.1261  -11.3438 H   0  0  0  0  0  0  0  0  0  0  0  0
   -4.7469  -13.7324   -7.9638 H   0  0  0  0  0  0  0  0  0  0  0  0
   -3.8041  -13.5709   -9.4842 H   0  0  0  0  0  0  0  0  0  0  0  0
   -5.5708  -13.2464   -9.4842 H   0  0  0  0  0  0  0  0  0  0  0  0
   -2.8989  -19.0106  -10.5491 H   0  0  0  0  0  0  0  0  0  0  0  0
   -4.9703  -17.3865   -8.1023 H   0  0  0  0  0  0  0  0  0  0  0  0
   -7.0675  -17.7418  -10.2970 H   0  0  0  0  0  0  0  0  0  0  0  0
   -8.4781  -18.0588  -12.3138 H   0  0  0  0  0  0  0  0  0  0  0  0
   -7.0045  -22.0728  -12.7390 H   0  0  0  0  0  0  0  0  0  0  0  0
   -5.5484  -21.7470  -10.7475 H   0  0  0  0  0  0  0  0  0  0  0  0
 25 24  3  0
  1  2  2  0
 24 23  1  0
  2  3  1  0
  2  6  1  0
  3  4  2  0
  7  6  1  0
  6  8  1  0
 23 26  2  0
 23 22  1  0
  4  5  1  0
  4 13  1  0
 26 27  1  0
 22 21  2  0
  8 13  2  0
  8  9  1  0
 13 14  1  0
  9 10  2  0
 27 20  2  0
 21 20  1  0
 14 15  2  0
 20 17  1  0
 10 15  1  0
 10 11  1  0
 15 16  1  0
 11 12  1  0
 18 17  2  0
 17 16  1  0
 17 19  2  0
  3 28  1  0
  5 29  1  0
  5 30  1  0
  5 31  1  0
  7 32  1  0
  7 33  1  0
  7 34  1  0
  9 35  1  0
 12 36  1  0
 12 37  1  0
 12 38  1  0
 14 39  1  0
 16 40  1  0
 21 41  1  0
 22 42  1  0
 26 43  1  0
 27 44  1  0
A    1
O3
A    2
C14
A    3
C13
A    4
C12
A    5
C18
A    6
N2
A    7
C15
A    8
C16
A    9
C17
A   10
C1
A   11
O
A   12
C
A   13
C11
A   14
C10
A   15
C2
A   16
N
A   17
S
A   18
O1
A   19
O2
A   20
C3
A   21
C8
A   22
C7
A   23
C6
A   24
C9
A   25
N1
A   26
C5
A   27
C4
M  END
