5T5U_75T_A_502
     RDKit          3D

 53 56  0  0  0  0  0  0  0  0999 V2000
    6.4260    5.3250   16.5660 C   0  0  0  0  0  0  0  0  0  0  0  0
    7.0660    5.3280   17.9670 C   0  0  0  0  0  0  0  0  0  0  0  0
    7.8660    6.5620   18.1870 N   0  0  0  0  0  0  0  0  0  0  0  0
    8.9150    6.6720   17.1730 C   0  0  0  0  0  0  0  0  0  0  0  0
    8.2670    6.7570   15.7910 C   0  0  0  0  0  0  0  0  0  0  0  0
    7.5250    5.4570   15.5460 C   0  0  0  0  0  0  0  0  0  0  0  0
    6.9070    5.4460   14.1570 C   0  0  0  0  0  0  0  0  0  0  0  0
    6.9720    6.6020   13.3750 C   0  0  0  0  0  0  0  0  0  0  0  0
    6.2640    4.3010   13.6920 C   0  0  0  0  0  0  0  0  0  0  0  0
    5.7130    4.3020   12.4210 C   0  0  0  0  0  0  0  0  0  0  0  0
    5.7830    5.4360   11.6390 C   0  0  0  0  0  0  0  0  0  0  0  0
    6.3750    6.6060   12.1440 C   0  0  0  0  0  0  0  0  0  0  0  0
    6.4140    7.7340   11.3370 C   0  0  0  0  0  0  0  0  0  0  0  0
    7.4980    8.6040   11.3180 C   0  0  0  0  0  0  0  0  0  0  0  0
    7.4740    9.6830   10.4210 C   0  0  0  0  0  0  0  0  0  0  0  0
    5.3540    7.9190   10.4580 C   0  0  0  0  0  0  0  0  0  0  0  0
    5.3300    9.0000    9.5990 C   0  0  0  0  0  0  0  0  0  0  0  0
    6.3970    9.9030    9.5820 C   0  0  0  0  0  0  0  0  0  0  0  0
    6.3610   10.9550    8.7030 O   0  0  0  0  0  0  0  0  0  0  0  0
    7.1280   12.1140    9.1470 C   0  0  0  0  0  0  0  0  0  0  0  0
    6.8870   12.6630   10.4040 C   0  0  0  0  0  0  0  0  0  0  0  0
    7.9610   12.8320   11.2660 C   0  0  0  0  0  0  0  0  0  0  0  0
    7.7020   13.3850   12.5300 C   0  0  0  0  0  0  0  0  0  0  0  0
    6.4160   13.7080   12.8890 C   0  0  0  0  0  0  0  0  0  0  0  0
    5.3890   13.5210   12.0500 N   0  0  0  0  0  0  0  0  0  0  0  0
    5.5900   13.0110   10.8210 C   0  0  0  0  0  0  0  0  0  0  0  0
    4.3800   12.8700    9.9110 C   0  0  0  0  0  0  0  0  0  0  0  0
    5.7287    6.1707   16.4735 H   0  0  0  0  0  0  0  0  0  0  0  0
    5.8688    4.3903   16.4051 H   0  0  0  0  0  0  0  0  0  0  0  0
    6.2709    5.2752   18.7254 H   0  0  0  0  0  0  0  0  0  0  0  0
    7.7351    4.4586   18.0475 H   0  0  0  0  0  0  0  0  0  0  0  0
    8.2984    6.5251   19.1211 H   0  0  0  0  0  0  0  0  0  0  0  0
    9.5674    5.7876   17.2203 H   0  0  0  0  0  0  0  0  0  0  0  0
    9.5156    7.5750   17.3572 H   0  0  0  0  0  0  0  0  0  0  0  0
    9.0416    6.8963   15.0225 H   0  0  0  0  0  0  0  0  0  0  0  0
    7.5739    7.6098   15.7435 H   0  0  0  0  0  0  0  0  0  0  0  0
    8.2352    4.6210   15.6277 H   0  0  0  0  0  0  0  0  0  0  0  0
    7.4957    7.4962   13.7438 H   0  0  0  0  0  0  0  0  0  0  0  0
    6.1945    3.4057   14.3273 H   0  0  0  0  0  0  0  0  0  0  0  0
    5.2194    3.3979   12.0352 H   0  0  0  0  0  0  0  0  0  0  0  0
    5.3745    5.4244   10.6177 H   0  0  0  0  0  0  0  0  0  0  0  0
    8.3548    8.4503   11.9905 H   0  0  0  0  0  0  0  0  0  0  0  0
    8.3323   10.3701   10.3844 H   0  0  0  0  0  0  0  0  0  0  0  0
    4.5247    7.1964   10.4462 H   0  0  0  0  0  0  0  0  0  0  0  0
    4.4713    9.1505    8.9282 H   0  0  0  0  0  0  0  0  0  0  0  0
    8.1882   11.8218    9.1250 H   0  0  0  0  0  0  0  0  0  0  0  0
    6.8113   12.9093    8.4563 H   0  0  0  0  0  0  0  0  0  0  0  0
    8.9800   12.5427   10.9693 H   0  0  0  0  0  0  0  0  0  0  0  0
    8.5294   13.5598   13.2335 H   0  0  0  0  0  0  0  0  0  0  0  0
    6.2256   14.1293   13.8871 H   0  0  0  0  0  0  0  0  0  0  0  0
    3.4717   12.7642   10.5224 H   0  0  0  0  0  0  0  0  0  0  0  0
    4.2925   13.7640    9.2761 H   0  0  0  0  0  0  0  0  0  0  0  0
    4.5004   11.9798    9.2761 H   0  0  0  0  0  0  0  0  0  0  0  0
 19 20  1  0
 19 18  1  0
 20 21  1  0
 18 17  2  0
 18 15  1  0
 17 16  1  0
 27 26  1  0
 21 26  1  0
 21 22  2  0
 15 14  2  0
 16 13  2  0
 26 25  2  0
 22 23  1  0
 14 13  1  0
 13 12  1  0
 11 12  1  0
 11 10  2  0
 25 24  1  0
 12  8  2  0
 10  9  1  0
 23 24  2  0
  8  7  1  0
  9  7  2  0
  7  6  1  0
  6  5  1  0
  6  1  1  0
  5  4  1  0
  1  2  1  0
  4  3  1  0
  2  3  1  0
  1 28  1  0
  1 29  1  0
  2 30  1  0
  2 31  1  0
  3 32  1  0
  4 33  1  0
  4 34  1  0
  5 35  1  0
  5 36  1  0
  6 37  1  0
  8 38  1  0
  9 39  1  0
 10 40  1  0
 11 41  1  0
 14 42  1  0
 15 43  1  0
 16 44  1  0
 17 45  1  0
 20 46  1  0
 20 47  1  0
 22 48  1  0
 23 49  1  0
 24 50  1  0
 27 51  1  0
 27 52  1  0
 27 53  1  0
A    1
CAO
A    2
CAM
A    3
NAS
A    4
CAN
A    5
CAP
A    6
CBA
A    7
CAX
A    8
CAL
A    9
CAF
A   10
CAC
A   11
CAE
A   12
CAW
A   13
CAV
A   14
CAK
A   15
CAI
A   16
CAJ
A   17
CAH
A   18
CAU
A   19
OAT
A   20
CAQ
A   21
CAZ
A   22
CAG
A   23
CAB
A   24
CAD
A   25
NAR
A   26
CAY
A   27
CAA
M  END
