5T6C_75S_A_502
     RDKit          3D

 51 54  0  0  0  0  0  0  0  0999 V2000
  -10.5860    8.2510  -19.3540 C   0  0  0  0  0  0  0  0  0  0  0  0
   -9.8600    6.8960  -19.6150 C   0  0  0  0  0  0  0  0  0  0  0  0
   -8.4500    7.1000  -19.5120 N   0  0  0  0  0  0  0  0  0  0  0  0
   -8.0900    7.5420  -18.1250 C   0  0  0  0  0  0  0  0  0  0  0  0
   -8.6430    8.9910  -18.0100 C   0  0  0  0  0  0  0  0  0  0  0  0
  -10.1460    8.8180  -18.1250 N   0  0  0  0  0  0  0  0  0  0  0  0
  -10.7740    8.6620  -16.9130 C   0  0  0  0  0  0  0  0  0  0  0  0
  -10.1430    8.9540  -15.6810 C   0  0  0  0  0  0  0  0  0  0  0  0
  -12.0090    8.2490  -16.9040 N   0  0  0  0  0  0  0  0  0  0  0  0
  -12.6220    8.0450  -15.7050 C   0  0  0  0  0  0  0  0  0  0  0  0
  -12.0400    8.3530  -14.4710 C   0  0  0  0  0  0  0  0  0  0  0  0
  -10.7450    8.8290  -14.4590 C   0  0  0  0  0  0  0  0  0  0  0  0
  -10.1010    9.0660  -13.2070 C   0  0  0  0  0  0  0  0  0  0  0  0
  -10.7900    9.6720  -12.1560 C   0  0  0  0  0  0  0  0  0  0  0  0
  -10.1670    9.9320  -10.9010 C   0  0  0  0  0  0  0  0  0  0  0  0
  -11.1540   10.6800   -9.6460 Cl  0  0  0  0  0  0  0  0  0  0  0  0
   -8.7680    8.7160  -12.9880 C   0  0  0  0  0  0  0  0  0  0  0  0
   -8.1710    8.9930  -11.7230 C   0  0  0  0  0  0  0  0  0  0  0  0
   -6.5010    8.5980  -11.5120 Cl  0  0  0  0  0  0  0  0  0  0  0  0
   -8.8550    9.6310  -10.6850 C   0  0  0  0  0  0  0  0  0  0  0  0
   -8.1900    9.9350   -9.4800 O   0  0  0  0  0  0  0  0  0  0  0  0
   -7.9520   11.5690   -9.3740 C   0  0  0  0  0  0  0  0  0  0  0  0
   -7.4340   12.3300  -10.5290 C   0  0  0  0  0  0  0  0  0  0  0  0
   -8.3020   12.7550  -11.5260 C   0  0  0  0  0  0  0  0  0  0  0  0
   -7.8180   13.4020  -12.6470 C   0  0  0  0  0  0  0  0  0  0  0  0
   -6.4590   13.6420  -12.8390 C   0  0  0  0  0  0  0  0  0  0  0  0
   -5.6030   13.1660  -11.9260 N   0  0  0  0  0  0  0  0  0  0  0  0
   -6.0570   12.6000  -10.7760 C   0  0  0  0  0  0  0  0  0  0  0  0
   -4.9680   12.2010   -9.7830 C   0  0  0  0  0  0  0  0  0  0  0  0
  -10.3618    8.9471  -20.1757 H   0  0  0  0  0  0  0  0  0  0  0  0
  -11.6698    8.0714  -19.2977 H   0  0  0  0  0  0  0  0  0  0  0  0
  -10.1079    6.5323  -20.6231 H   0  0  0  0  0  0  0  0  0  0  0  0
  -10.1841    6.1504  -18.8740 H   0  0  0  0  0  0  0  0  0  0  0  0
   -7.9623    6.2182  -19.7253 H   0  0  0  0  0  0  0  0  0  0  0  0
   -8.5603    6.8878  -17.3761 H   0  0  0  0  0  0  0  0  0  0  0  0
   -7.0058    7.4972  -17.9447 H   0  0  0  0  0  0  0  0  0  0  0  0
   -8.3734    9.4371  -17.0414 H   0  0  0  0  0  0  0  0  0  0  0  0
   -8.2334    9.6637  -18.7779 H   0  0  0  0  0  0  0  0  0  0  0  0
   -9.1006    9.3043  -15.7074 H   0  0  0  0  0  0  0  0  0  0  0  0
  -13.6336    7.6129  -15.7072 H   0  0  0  0  0  0  0  0  0  0  0  0
  -12.6004    8.2192  -13.5340 H   0  0  0  0  0  0  0  0  0  0  0  0
  -11.8427    9.9568  -12.3000 H   0  0  0  0  0  0  0  0  0  0  0  0
   -8.1834    8.2311  -13.7836 H   0  0  0  0  0  0  0  0  0  0  0  0
   -7.2443   11.7309   -8.5476 H   0  0  0  0  0  0  0  0  0  0  0  0
   -8.9739   11.9597   -9.2601 H   0  0  0  0  0  0  0  0  0  0  0  0
   -9.3823   12.5754  -11.4228 H   0  0  0  0  0  0  0  0  0  0  0  0
   -8.5303   13.7393  -13.4144 H   0  0  0  0  0  0  0  0  0  0  0  0
   -6.1005   14.2050  -13.7134 H   0  0  0  0  0  0  0  0  0  0  0  0
   -5.3398   12.3372   -8.7567 H   0  0  0  0  0  0  0  0  0  0  0  0
   -4.6988   11.1458   -9.9384 H   0  0  0  0  0  0  0  0  0  0  0  0
   -4.0808   12.8325   -9.9384 H   0  0  0  0  0  0  0  0  0  0  0  0
  2  3  1  0
  2  1  1  0
  3  4  1  0
  1  6  1  0
  4  5  1  0
  6  5  1  0
  6  7  1  0
  7  9  1  0
  7  8  2  0
  9 10  2  0
 10 11  1  0
  8 12  1  0
 11 12  2  0
 12 13  1  0
 13 17  1  0
 13 14  2  0
 17 18  2  0
 26 25  1  0
 26 27  2  0
 25 24  2  0
 14 15  1  0
 27 28  1  0
 18 19  1  0
 18 20  1  0
 24 23  1  0
 15 20  2  0
 15 16  1  0
 28 23  2  0
 28 29  1  0
 20 21  1  0
 23 22  1  0
 21 22  1  0
  1 30  1  0
  1 31  1  0
  2 32  1  0
  2 33  1  0
  3 34  1  0
  4 35  1  0
  4 36  1  0
  5 37  1  0
  5 38  1  0
  8 39  1  0
 10 40  1  0
 11 41  1  0
 14 42  1  0
 17 43  1  0
 22 44  1  0
 22 45  1  0
 24 46  1  0
 25 47  1  0
 26 48  1  0
 29 49  1  0
 29 50  1  0
 29 51  1  0
A    1
CAN
A    2
CAL
A    3
NAS
A    4
CAM
A    5
CAO
A    6
NBC
A    7
CBA
A    8
CAK
A    9
NAR
A   10
CAF
A   11
CAH
A   12
CAX
A   13
CAY
A   14
CAJ
A   15
CAV
A   16
CL2
A   17
CAI
A   18
CAU
A   19
CL1
A   20
CBB
A   21
OAT
A   22
CAP
A   23
CAZ
A   24
CAG
A   25
CAD
A   26
CAE
A   27
NAQ
A   28
CAW
A   29
CAA
M  END
