5T6H_75Q_A_502
     RDKit          3D

 54 57  0  0  0  0  0  0  0  0999 V2000
    8.9520    7.5180   18.2060 C   0  0  0  0  0  0  0  0  0  0  0  0
    8.9980    6.4390   19.2480 C   0  0  0  0  0  0  0  0  0  0  0  0
    9.1570    6.9050   20.6250 N   0  0  0  0  0  0  0  0  0  0  0  0
   10.4150    7.6670   20.6680 C   0  0  0  0  0  0  0  0  0  0  0  0
   10.4880    8.8030   19.6620 C   0  0  0  0  0  0  0  0  0  0  0  0
   10.1800    8.3200   18.3070 N   0  0  0  0  0  0  0  0  0  0  0  0
   10.8290    8.9070   17.2430 C   0  0  0  0  0  0  0  0  0  0  0  0
   10.3760    8.7840   15.9330 C   0  0  0  0  0  0  0  0  0  0  0  0
   11.8370    9.7180   17.5500 N   0  0  0  0  0  0  0  0  0  0  0  0
   12.5130   10.3150   16.6100 C   0  0  0  0  0  0  0  0  0  0  0  0
   12.1580   10.2070   15.2950 C   0  0  0  0  0  0  0  0  0  0  0  0
   11.0950    9.3800   14.9550 C   0  0  0  0  0  0  0  0  0  0  0  0
   10.7280    9.3360   13.6270 C   0  0  0  0  0  0  0  0  0  0  0  0
    9.4070    9.0590   13.2430 C   0  0  0  0  0  0  0  0  0  0  0  0
    9.0430    9.1160   11.9060 C   0  0  0  0  0  0  0  0  0  0  0  0
    7.4240    8.7220   11.5350 Cl  0  0  0  0  0  0  0  0  0  0  0  0
   11.6780    9.6840   12.6660 C   0  0  0  0  0  0  0  0  0  0  0  0
   11.3430    9.6990   11.3330 C   0  0  0  0  0  0  0  0  0  0  0  0
   12.6310   10.1250   10.2080 Cl  0  0  0  0  0  0  0  0  0  0  0  0
   10.0350    9.3930   10.9260 C   0  0  0  0  0  0  0  0  0  0  0  0
    9.6670    9.4860    9.6020 O   0  0  0  0  0  0  0  0  0  0  0  0
    9.6120   10.9640    9.3460 C   0  0  0  0  0  0  0  0  0  0  0  0
    8.8830   11.8050   10.2420 C   0  0  0  0  0  0  0  0  0  0  0  0
    9.5180   12.3630   11.3580 C   0  0  0  0  0  0  0  0  0  0  0  0
    8.8130   13.1430   12.2490 C   0  0  0  0  0  0  0  0  0  0  0  0
    7.4710   13.4290   11.9700 C   0  0  0  0  0  0  0  0  0  0  0  0
    6.7020   14.3240   12.9370 C   0  0  0  0  0  0  0  0  0  0  0  0
    6.8810   12.9170   10.8890 N   0  0  0  0  0  0  0  0  0  0  0  0
    7.5430   12.1110   10.0300 C   0  0  0  0  0  0  0  0  0  0  0  0
    6.8190   11.5640    8.7960 C   0  0  0  0  0  0  0  0  0  0  0  0
    8.0751    8.1600   18.3757 H   0  0  0  0  0  0  0  0  0  0  0  0
    8.8770    7.0701   17.2041 H   0  0  0  0  0  0  0  0  0  0  0  0
    8.0590    5.8692   19.1886 H   0  0  0  0  0  0  0  0  0  0  0  0
    9.8929    5.8394   19.0250 H   0  0  0  0  0  0  0  0  0  0  0  0
    8.3660    7.5095   20.8892 H   0  0  0  0  0  0  0  0  0  0  0  0
   11.2454    6.9741   20.4672 H   0  0  0  0  0  0  0  0  0  0  0  0
   10.4744    8.1241   21.6668 H   0  0  0  0  0  0  0  0  0  0  0  0
   11.5022    9.2287   19.6715 H   0  0  0  0  0  0  0  0  0  0  0  0
    9.7492    9.5690   19.9402 H   0  0  0  0  0  0  0  0  0  0  0  0
    9.4612    8.2193   15.7002 H   0  0  0  0  0  0  0  0  0  0  0  0
   13.3904   10.9204   16.8813 H   0  0  0  0  0  0  0  0  0  0  0  0
   12.7040   10.7647   14.5198 H   0  0  0  0  0  0  0  0  0  0  0  0
    8.6581    8.7959   14.0046 H   0  0  0  0  0  0  0  0  0  0  0  0
   12.6998    9.9476   12.9767 H   0  0  0  0  0  0  0  0  0  0  0  0
   10.6504   11.3268    9.3396 H   0  0  0  0  0  0  0  0  0  0  0  0
    9.0516   11.0429    8.4028 H   0  0  0  0  0  0  0  0  0  0  0  0
   10.5892   12.1772   11.5252 H   0  0  0  0  0  0  0  0  0  0  0  0
    9.2937   13.5321   13.1587 H   0  0  0  0  0  0  0  0  0  0  0  0
    6.9456   14.0405   13.9716 H   0  0  0  0  0  0  0  0  0  0  0  0
    6.9842   15.3737   12.7683 H   0  0  0  0  0  0  0  0  0  0  0  0
    5.6218   14.2031   12.7683 H   0  0  0  0  0  0  0  0  0  0  0  0
    5.9790   10.9294    9.1150 H   0  0  0  0  0  0  0  0  0  0  0  0
    6.4376   12.4015    8.1934 H   0  0  0  0  0  0  0  0  0  0  0  0
    7.5204   10.9683    8.1934 H   0  0  0  0  0  0  0  0  0  0  0  0
 30 29  1  0
 22 21  1  0
 22 23  1  0
 21 20  1  0
 29 23  1  0
 29 28  2  0
 19 18  1  0
 23 24  2  0
 28 26  1  0
 20 18  2  0
 20 15  1  0
 18 17  1  0
 24 25  1  0
 16 15  1  0
 15 14  2  0
 26 25  2  0
 26 27  1  0
 17 13  2  0
 14 13  1  0
 13 12  1  0
 12 11  1  0
 12  8  2  0
 11 10  2  0
  8  7  1  0
 10  9  1  0
  7  9  2  0
  7  6  1  0
  1  6  1  0
  1  2  1  0
  6  5  1  0
  2  3  1  0
  5  4  1  0
  3  4  1  0
  1 31  1  0
  1 32  1  0
  2 33  1  0
  2 34  1  0
  3 35  1  0
  4 36  1  0
  4 37  1  0
  5 38  1  0
  5 39  1  0
  8 40  1  0
 10 41  1  0
 11 42  1  0
 14 43  1  0
 17 44  1  0
 22 45  1  0
 22 46  1  0
 24 47  1  0
 25 48  1  0
 27 49  1  0
 27 50  1  0
 27 51  1  0
 30 52  1  0
 30 53  1  0
 30 54  1  0
A    1
CAN
A    2
CAL
A    3
NAS
A    4
CAM
A    5
CAO
A    6
NBD
A    7
CBB
A    8
CAK
A    9
NAQ
A   10
CAE
A   11
CAF
A   12
CAY
A   13
CAZ
A   14
CAJ
A   15
CAW
A   16
CL1
A   17
CAI
A   18
CAV
A   19
CL2
A   20
CBC
A   21
OAT
A   22
CAP
A   23
CBA
A   24
CAH
A   25
CAG
A   26
CAU
A   27
CAA
A   28
NAR
A   29
CAX
A   30
CAB
M  END
