5T8E_77U_A_1003
     RDKit          3D

 32 33  0  0  0  0  0  0  0  0999 V2000
   28.8940   -0.3170    3.5550 C   0  0  0  0  0  0  0  0  0  0  0  0
   27.5090   -0.9340    3.2740 C   0  0  0  0  0  0  0  0  0  0  0  0
   26.6140    0.3120    3.2090 C   0  0  0  0  0  0  0  0  0  0  0  0
   26.6520    2.4860    4.2410 C   0  0  0  0  0  0  0  0  0  0  0  0
   25.7560    5.1260    4.1250 C   0  0  0  0  0  0  0  0  0  0  0  0
   29.1250    0.9990    5.7620 C   0  0  0  0  0  0  0  0  0  0  0  0
   28.6110    1.0100    4.3190 C   0  0  0  0  0  0  0  0  0  0  0  0
   29.6900   -1.2430    4.3010 O   0  0  0  0  0  0  0  0  0  0  0  0
   27.1220    1.1670    4.3170 N   0  0  0  0  0  0  0  0  0  0  0  0
   27.5530    3.5410    4.0310 C   0  0  0  0  0  0  0  0  0  0  0  0
   27.1220    4.8470    3.9700 C   0  0  0  0  0  0  0  0  0  0  0  0
   25.3030    6.4840    4.0520 C   0  0  0  0  0  0  0  0  0  0  0  0
   25.0360    7.5900    3.9820 N   0  0  0  0  0  0  0  0  0  0  0  0
   24.8390    4.0750    4.3340 C   0  0  0  0  0  0  0  0  0  0  0  0
   23.1400    4.3970    4.5220 Cl  0  0  0  0  0  0  0  0  0  0  0  0
   25.2820    2.7690    4.3960 C   0  0  0  0  0  0  0  0  0  0  0  0
   24.2580    1.6860    4.6370 C   0  0  0  0  0  0  0  0  0  0  0  0
   29.4698   -0.1025    2.6426 H   0  0  0  0  0  0  0  0  0  0  0  0
   27.1988   -1.6074    4.0866 H   0  0  0  0  0  0  0  0  0  0  0  0
   27.4746   -1.5536    2.3658 H   0  0  0  0  0  0  0  0  0  0  0  0
   26.7199    0.8214    2.2398 H   0  0  0  0  0  0  0  0  0  0  0  0
   25.5444    0.0752    3.3081 H   0  0  0  0  0  0  0  0  0  0  0  0
   28.2713    1.0173    6.4555 H   0  0  0  0  0  0  0  0  0  0  0  0
   29.7172    0.0880    5.9334 H   0  0  0  0  0  0  0  0  0  0  0  0
   29.7556    1.8839    5.9334 H   0  0  0  0  0  0  0  0  0  0  0  0
   29.1360    1.8402    3.8239 H   0  0  0  0  0  0  0  0  0  0  0  0
   29.5564   -1.0875    5.2695 H   0  0  0  0  0  0  0  0  0  0  0  0
   28.6241    3.3203    3.9129 H   0  0  0  0  0  0  0  0  0  0  0  0
   27.8407    5.6626    3.8016 H   0  0  0  0  0  0  0  0  0  0  0  0
   24.1231    1.5433    5.7193 H   0  0  0  0  0  0  0  0  0  0  0  0
   23.2998    1.9799    4.1836 H   0  0  0  0  0  0  0  0  0  0  0  0
   24.6051    0.7458    4.1836 H   0  0  0  0  0  0  0  0  0  0  0  0
  3  2  1  0
  3  9  1  0
  2  1  1  0
  1  8  1  0
  1  7  1  0
 11 10  1  0
 11  5  2  0
 13 12  3  0
 10  4  2  0
 12  5  1  0
  5 14  1  0
  4  9  1  0
  4 16  1  0
  9  7  1  0
  7  6  1  0
 14 16  2  0
 14 15  1  0
 16 17  1  0
  1 18  1  0
  2 19  1  0
  2 20  1  0
  3 21  1  0
  3 22  1  0
  6 23  1  0
  6 24  1  0
  6 25  1  0
  7 26  1  0
  8 27  1  0
 10 28  1  0
 11 29  1  0
 17 30  1  0
 17 31  1  0
 17 32  1  0
A    1
C4
A    2
C7
A    3
C8
A    4
C10
A    5
C13
A    6
C1
A    7
C2
A    8
O6
A    9
N9
A   10
C11
A   11
C12
A   12
C14
A   13
N15
A   14
C16
A   15
CL1
A   16
C18
A   17
C19
M  END
