5C9T_4Z0_A_804
     RDKit          3D

 21 21  0  0  0  0  0  0  0  0999 V2000
   30.4680   75.5110   61.3650 C   0  0  0  0  0  0  0  0  0  0  0  0
   34.0380   76.0900   63.8440 O   0  0  0  0  0  0  0  0  0  0  0  0
   33.6060   76.8830   63.0520 C   0  0  0  0  0  0  0  0  0  0  0  0
   33.7600   78.2300   63.3640 O   0  0  0  0  0  0  0  0  0  0  0  0
   35.0240   78.7540   63.7220 C   0  0  0  0  0  0  0  0  0  0  0  0
   35.3840   79.9720   63.4460 C   0  0  0  0  0  0  0  0  0  0  0  0
   36.7670   80.3400   62.9330 C   0  0  0  0  0  0  0  0  0  0  0  0
   37.9970   80.0720   63.8910 C   0  0  0  0  0  0  0  0  0  0  0  0
   39.0920   79.9710   63.3180 O   0  0  0  0  0  0  0  0  0  0  0  0
   37.7140   79.9580   65.1050 O   0  0  0  0  0  0  0  0  0  0  0  0
   36.9200   80.7450   61.8030 O   0  0  0  0  0  0  0  0  0  0  0  0
   32.3850   76.5660   62.2280 C   0  0  0  0  0  0  0  0  0  0  0  0
   31.5490   75.4810   62.3080 C   0  0  0  0  0  0  0  0  0  0  0  0
   30.5000   76.6180   60.5750 C   0  0  0  0  0  0  0  0  0  0  0  0
   31.8110   77.6510   60.9780 S   0  0  0  0  0  0  0  0  0  0  0  0
   29.6999   74.7272   61.2894 H   0  0  0  0  0  0  0  0  0  0  0  0
   35.7320   78.1035   64.2564 H   0  0  0  0  0  0  0  0  0  0  0  0
   34.6500   80.7783   63.5911 H   0  0  0  0  0  0  0  0  0  0  0  0
   38.3734   80.2236   65.7940 H   0  0  0  0  0  0  0  0  0  0  0  0
   31.6942   74.6631   63.0290 H   0  0  0  0  0  0  0  0  0  0  0  0
   29.7741   76.8261   59.7751 H   0  0  0  0  0  0  0  0  0  0  0  0
 14 15  1  0
 14  1  2  0
 15 12  1  0
  1 13  1  0
 11  7  2  0
 13 12  2  0
 12  3  1  0
  3  4  1  0
  3  2  2  0
  7  6  1  0
  7  8  1  0
  4  5  1  0
  9  8  2  0
  6  5  2  0
  8 10  1  0
  1 16  1  0
  5 17  1  0
  6 18  1  0
 10 19  1  0
 13 20  1  0
 14 21  1  0
A    1
C13
A    2
O01
A    3
C02
A    4
O03
A    5
C04
A    6
C05
A    7
C06
A    8
C07
A    9
O08
A   10
O09
A   11
O10
A   12
C11
A   13
C12
A   14
C14
A   15
S15
M  END
