5T8J_77T_A_1002
     RDKit          3D

 35 36  0  0  0  0  0  0  0  0999 V2000
   28.3180    1.9120    5.1520 C   0  0  0  0  0  0  0  0  0  0  0  0
   28.4870    0.4570    5.6710 C   0  0  0  0  0  0  0  0  0  0  0  0
   27.5730   -0.3730    4.7380 C   0  0  0  0  0  0  0  0  0  0  0  0
   27.0420   -1.6610    5.3740 C   0  0  0  0  0  0  0  0  0  0  0  0
   26.3330    3.1140    4.3280 C   0  0  0  0  0  0  0  0  0  0  0  0
   25.3020    5.7250    4.2170 C   0  0  0  0  0  0  0  0  0  0  0  0
   25.6360    0.1510    3.2710 C   0  0  0  0  0  0  0  0  0  0  0  0
   26.4070    0.5910    4.5120 C   0  0  0  0  0  0  0  0  0  0  0  0
   27.0640    1.8970    4.3300 N   0  0  0  0  0  0  0  0  0  0  0  0
   28.2730   -0.6710    3.5300 O   0  0  0  0  0  0  0  0  0  0  0  0
   27.1550    4.2180    4.0610 C   0  0  0  0  0  0  0  0  0  0  0  0
   26.6640    5.4920    4.0120 C   0  0  0  0  0  0  0  0  0  0  0  0
   24.8910    7.0900    4.1310 C   0  0  0  0  0  0  0  0  0  0  0  0
   24.5450    8.1670    4.0720 N   0  0  0  0  0  0  0  0  0  0  0  0
   24.4190    4.6470    4.4860 C   0  0  0  0  0  0  0  0  0  0  0  0
   23.0840    4.8750    4.6840 F   0  0  0  0  0  0  0  0  0  0  0  0
   24.9320    3.3410    4.5400 C   0  0  0  0  0  0  0  0  0  0  0  0
   23.9110    2.2680    4.8350 C   0  0  0  0  0  0  0  0  0  0  0  0
   29.1802    2.2030    4.5339 H   0  0  0  0  0  0  0  0  0  0  0  0
   28.2582    2.6369    5.9772 H   0  0  0  0  0  0  0  0  0  0  0  0
   28.1591    0.3732    6.7176 H   0  0  0  0  0  0  0  0  0  0  0  0
   29.5332    0.1175    5.6557 H   0  0  0  0  0  0  0  0  0  0  0  0
   27.0790   -1.5712    6.4697 H   0  0  0  0  0  0  0  0  0  0  0  0
   26.0024   -1.8261    5.0546 H   0  0  0  0  0  0  0  0  0  0  0  0
   27.6631   -2.5108    5.0546 H   0  0  0  0  0  0  0  0  0  0  0  0
   24.7181   -0.3728    3.5762 H   0  0  0  0  0  0  0  0  0  0  0  0
   25.3719    1.0344    2.6711 H   0  0  0  0  0  0  0  0  0  0  0  0
   26.2622   -0.5258    2.6711 H   0  0  0  0  0  0  0  0  0  0  0  0
   25.6757    0.6244    5.3330 H   0  0  0  0  0  0  0  0  0  0  0  0
   29.1615   -1.0492    3.7482 H   0  0  0  0  0  0  0  0  0  0  0  0
   28.2284    4.0533    3.8856 H   0  0  0  0  0  0  0  0  0  0  0  0
   27.3416    6.3348    3.8110 H   0  0  0  0  0  0  0  0  0  0  0  0
   23.8028    2.1542    5.9237 H   0  0  0  0  0  0  0  0  0  0  0  0
   22.9426    2.5532    4.3981 H   0  0  0  0  0  0  0  0  0  0  0  0
   24.2439    1.3150    4.3981 H   0  0  0  0  0  0  0  0  0  0  0  0
  7  8  1  0
 10  3  1  0
 12 11  1  0
 12  6  2  0
 11  5  2  0
 14 13  3  0
 13  6  1  0
  6 15  1  0
  5  9  1  0
  5 17  1  0
  9  8  1  0
  9  1  1  0
 15 17  2  0
 15 16  1  0
  8  3  1  0
 17 18  1  0
  3  4  1  0
  3  2  1  0
  1  2  1  0
  1 19  1  0
  1 20  1  0
  2 21  1  0
  2 22  1  0
  4 23  1  0
  4 24  1  0
  4 25  1  0
  7 26  1  0
  7 27  1  0
  7 28  1  0
  8 29  1  0
 10 30  1  0
 11 31  1  0
 12 32  1  0
 18 33  1  0
 18 34  1  0
 18 35  1  0
A    1
C5
A    2
C6
A    3
C7
A    4
C8
A    5
C10
A    6
C13
A    7
C1
A    8
C2
A    9
N4
A   10
O9
A   11
C11
A   12
C12
A   13
C14
A   14
N15
A   15
C16
A   16
F17
A   17
C18
A   18
C19
M  END
