5T8O_76Z_A_705
     RDKit          3D

 40 42  0  0  0  0  0  0  0  0999 V2000
   42.2620   19.4780    2.0390 C   0  0  0  0  0  0  0  0  0  0  0  0
   42.9550   17.1650   -0.6530 C   0  0  0  0  0  0  0  0  0  0  0  0
   42.5740   18.3830    1.4240 C   0  0  0  0  0  0  0  0  0  0  0  0
   42.9130   17.2430    2.1360 C   0  0  0  0  0  0  0  0  0  0  0  0
   43.0270   16.9060   -4.2100 C   0  0  0  0  0  0  0  0  0  0  0  0
   43.2660   16.0690    1.4790 C   0  0  0  0  0  0  0  0  0  0  0  0
   43.2930   16.0190    0.0820 C   0  0  0  0  0  0  0  0  0  0  0  0
   44.4910   14.7600   -1.6210 C   0  0  0  0  0  0  0  0  0  0  0  0
   43.6080   14.9400   -2.8490 C   0  0  0  0  0  0  0  0  0  0  0  0
   42.6370   18.2100   -3.9820 C   0  0  0  0  0  0  0  0  0  0  0  0
   42.9260   17.2400   -2.0490 C   0  0  0  0  0  0  0  0  0  0  0  0
   42.5880   18.3810   -2.6680 N   0  0  0  0  0  0  0  0  0  0  0  0
   42.0070   20.4840   -4.4100 N   0  0  0  0  0  0  0  0  0  0  0  0
   42.0060   20.5130    2.5640 C   0  0  0  0  0  0  0  0  0  0  0  0
   42.3360   19.0690   -6.1340 O   0  0  0  0  0  0  0  0  0  0  0  0
   42.3140   19.2920   -4.9350 C   0  0  0  0  0  0  0  0  0  0  0  0
   43.2000   16.3310   -3.0100 N   0  0  0  0  0  0  0  0  0  0  0  0
   43.6400   14.8170   -0.4870 O   0  0  0  0  0  0  0  0  0  0  0  0
   42.6050   18.3390    0.0400 C   0  0  0  0  0  0  0  0  0  0  0  0
   41.7570   21.7940    3.2580 C   0  0  0  0  0  0  0  0  0  0  0  0
   42.2930   21.7590    4.5810 O   0  0  0  0  0  0  0  0  0  0  0  0
   40.2640   22.0350    3.3790 C   0  0  0  0  0  0  0  0  0  0  0  0
   42.4380   22.9230    2.4990 C   0  0  0  0  0  0  0  0  0  0  0  0
   42.9027   17.2672    3.2357 H   0  0  0  0  0  0  0  0  0  0  0  0
   43.1692   16.4281   -5.1905 H   0  0  0  0  0  0  0  0  0  0  0  0
   43.5258   15.1735    2.0626 H   0  0  0  0  0  0  0  0  0  0  0  0
   45.0013   13.7864   -1.6619 H   0  0  0  0  0  0  0  0  0  0  0  0
   45.2620   15.5431   -1.5733 H   0  0  0  0  0  0  0  0  0  0  0  0
   42.7103   14.3138   -2.7396 H   0  0  0  0  0  0  0  0  0  0  0  0
   44.1845   14.6426   -3.7374 H   0  0  0  0  0  0  0  0  0  0  0  0
   41.9761   20.6038   -3.3875 H   0  0  0  0  0  0  0  0  0  0  0  0
   41.8016   21.2816   -5.0284 H   0  0  0  0  0  0  0  0  0  0  0  0
   42.3499   19.2436   -0.5315 H   0  0  0  0  0  0  0  0  0  0  0  0
   41.5539   21.8073    5.2379 H   0  0  0  0  0  0  0  0  0  0  0  0
   39.9848   22.0801    4.4420 H   0  0  0  0  0  0  0  0  0  0  0  0
   40.0055   22.9865    2.8913 H   0  0  0  0  0  0  0  0  0  0  0  0
   39.7192   21.2132    2.8913 H   0  0  0  0  0  0  0  0  0  0  0  0
   42.8694   23.6382    3.2149 H   0  0  0  0  0  0  0  0  0  0  0  0
   43.2376   22.5097    1.8667 H   0  0  0  0  0  0  0  0  0  0  0  0
   41.6994   23.4375    1.8667 H   0  0  0  0  0  0  0  0  0  0  0  0
 15 16  2  0
 16 13  1  0
 16 10  1  0
  5 10  2  0
  5 17  1  0
 10 12  1  0
 17  9  1  0
 17 11  1  0
  9  8  1  0
 12 11  2  0
 11  2  1  0
  8 18  1  0
  2 19  1  0
  2  7  2  0
 18  7  1  0
 19  3  2  0
  7  6  1  0
  3  1  1  0
  3  4  1  0
  6  4  2  0
  1 14  3  0
 23 20  1  0
 14 20  1  0
 20 22  1  0
 20 21  1  0
  4 24  1  0
  5 25  1  0
  6 26  1  0
  8 27  1  0
  8 28  1  0
  9 29  1  0
  9 30  1  0
 13 31  1  0
 13 32  1  0
 19 33  1  0
 21 34  1  0
 22 35  1  0
 22 36  1  0
 22 37  1  0
 23 38  1  0
 23 39  1  0
 23 40  1  0
A    1
C4
A    2
C14
A    3
C5
A    4
C6
A    5
C11
A    6
C7
A    7
C8
A    8
C9
A    9
C10
A   10
C12
A   11
C13
A   12
N1
A   13
N2
A   14
C3
A   15
O2
A   16
C16
A   17
N
A   18
O1
A   19
C15
A   20
C1
A   21
O
A   22
C2
A   23
C
M  END
