5T8Q_76Y_A_706
     RDKit          3D

 27 28  0  0  0  0  0  0  0  0999 V2000
   19.4060   42.2080    6.7150 C   0  0  0  0  0  0  0  0  0  0  0  0
   18.2230   42.5810    5.8870 C   0  0  0  0  0  0  0  0  0  0  0  0
   18.1820   42.6570    4.4970 C   0  0  0  0  0  0  0  0  0  0  0  0
   16.9070   43.0170    4.1420 C   0  0  0  0  0  0  0  0  0  0  0  0
   16.1900   43.1440    5.3110 C   0  0  0  0  0  0  0  0  0  0  0  0
   16.5580   42.9160    7.7460 C   0  0  0  0  0  0  0  0  0  0  0  0
   15.2360   40.1320   10.0920 C   0  0  0  0  0  0  0  0  0  0  0  0
   15.6460   41.3790    9.6340 C   0  0  0  0  0  0  0  0  0  0  0  0
   15.5910   42.7850   10.7230 Cl  0  0  0  0  0  0  0  0  0  0  0  0
   15.2750   39.0430    9.2300 C   0  0  0  0  0  0  0  0  0  0  0  0
   15.7180   39.1920    7.9160 C   0  0  0  0  0  0  0  0  0  0  0  0
   16.1430   40.4230    7.4250 C   0  0  0  0  0  0  0  0  0  0  0  0
   16.1300   41.5480    8.2380 C   0  0  0  0  0  0  0  0  0  0  0  0
   16.9980   42.8840    6.3480 N   0  0  0  0  0  0  0  0  0  0  0  0
   19.2550   41.9300    7.8890 O   0  0  0  0  0  0  0  0  0  0  0  0
   20.6220   42.1700    6.1750 N   0  0  0  0  0  0  0  0  0  0  0  0
   19.0188   42.4637    3.8097 H   0  0  0  0  0  0  0  0  0  0  0  0
   16.5299   43.1740    3.1207 H   0  0  0  0  0  0  0  0  0  0  0  0
   15.1263   43.4150    5.3820 H   0  0  0  0  0  0  0  0  0  0  0  0
   17.3887   43.2745    8.3716 H   0  0  0  0  0  0  0  0  0  0  0  0
   15.6900   43.5883    7.8137 H   0  0  0  0  0  0  0  0  0  0  0  0
   14.8841   40.0087   11.1269 H   0  0  0  0  0  0  0  0  0  0  0  0
   14.9533   38.0537    9.5874 H   0  0  0  0  0  0  0  0  0  0  0  0
   15.7318   38.3154    7.2516 H   0  0  0  0  0  0  0  0  0  0  0  0
   16.4918   40.5050    6.3850 H   0  0  0  0  0  0  0  0  0  0  0  0
   21.4542   42.1440    6.7814 H   0  0  0  0  0  0  0  0  0  0  0  0
   20.7308   42.1666    5.1508 H   0  0  0  0  0  0  0  0  0  0  0  0
  4  3  1  0
  4  5  2  0
  3  2  2  0
  5 14  1  0
  2 14  1  0
  2  1  1  0
 16  1  1  0
 14  6  1  0
  1 15  2  0
 12 11  2  0
 12 13  1  0
  6 13  1  0
 11 10  1  0
 13  8  2  0
 10  7  2  0
  8  7  1  0
  8  9  1  0
  3 17  1  0
  4 18  1  0
  5 19  1  0
  6 20  1  0
  6 21  1  0
  7 22  1  0
 10 23  1  0
 11 24  1  0
 12 25  1  0
 16 26  1  0
 16 27  1  0
A    1
C1
A    2
C2
A    3
C3
A    4
C4
A    5
C5
A    6
C6
A    7
C11
A    8
C12
A    9
CL
A   10
C10
A   11
C9
A   12
C8
A   13
C7
A   14
N2
A   15
O
A   16
N1
M  END
