5T97_782_A_601
     RDKit          3D

 61 64  0  0  0  0  0  0  0  0999 V2000
  -42.0250   10.5610  -23.7780 C   0  0  0  0  0  0  0  0  0  0  0  0
  -41.1510   11.1690  -22.8490 C   0  0  0  0  0  0  0  0  0  0  0  0
  -39.9440   10.5260  -22.4650 C   0  0  0  0  0  0  0  0  0  0  0  0
  -41.4940   12.3890  -22.3470 O   0  0  0  0  0  0  0  0  0  0  0  0
  -40.4290    7.4510  -33.3440 O   0  0  0  0  0  0  0  0  0  0  0  0
  -42.4590    8.4280  -33.1340 O   0  0  0  0  0  0  0  0  0  0  0  0
  -37.7840    5.3870  -26.0920 C   0  0  0  0  0  0  0  0  0  0  0  0
  -37.4430    4.1350  -26.6390 C   0  0  0  0  0  0  0  0  0  0  0  0
  -37.5720    2.9740  -25.8420 C   0  0  0  0  0  0  0  0  0  0  0  0
  -38.0760    3.1060  -24.5100 C   0  0  0  0  0  0  0  0  0  0  0  0
  -38.4200    4.3660  -23.9680 C   0  0  0  0  0  0  0  0  0  0  0  0
  -37.1780    1.6190  -26.4430 C   0  0  0  0  0  0  0  0  0  0  0  0
  -36.3080    0.7400  -25.5230 C   0  0  0  0  0  0  0  0  0  0  0  0
  -38.3930    0.8630  -26.9960 C   0  0  0  0  0  0  0  0  0  0  0  0
  -40.4860    7.1380  -26.0620 C   0  0  0  0  0  0  0  0  0  0  0  0
  -41.3830    6.2280  -26.6890 C   0  0  0  0  0  0  0  0  0  0  0  0
  -41.5960    6.2510  -28.0920 C   0  0  0  0  0  0  0  0  0  0  0  0
  -40.9160    7.1840  -28.9110 C   0  0  0  0  0  0  0  0  0  0  0  0
  -39.9500    8.0270  -28.3050 C   0  0  0  0  0  0  0  0  0  0  0  0
  -39.7680    8.0170  -26.9080 C   0  0  0  0  0  0  0  0  0  0  0  0
  -41.0930    6.2160  -23.7230 C   0  0  0  0  0  0  0  0  0  0  0  0
  -41.0940    7.1650  -30.3750 C   0  0  0  0  0  0  0  0  0  0  0  0
  -41.1350    8.2250  -31.2090 C   0  0  0  0  0  0  0  0  0  0  0  0
  -41.2750    7.9900  -32.6310 C   0  0  0  0  0  0  0  0  0  0  0  0
  -39.6200    9.2540  -23.0140 C   0  0  0  0  0  0  0  0  0  0  0  0
  -40.4970    8.6080  -23.9590 C   0  0  0  0  0  0  0  0  0  0  0  0
  -41.7120    9.2920  -24.3160 C   0  0  0  0  0  0  0  0  0  0  0  0
  -38.3060    8.6110  -22.6040 C   0  0  0  0  0  0  0  0  0  0  0  0
  -38.1680    7.1340  -23.0010 C   0  0  0  0  0  0  0  0  0  0  0  0
  -38.7010    6.8390  -24.3500 N   0  0  0  0  0  0  0  0  0  0  0  0
  -40.1640    7.1780  -24.5360 C   0  0  0  0  0  0  0  0  0  0  0  0
  -38.2790    5.5380  -24.7640 C   0  0  0  0  0  0  0  0  0  0  0  0
  -42.9486   11.0751  -24.0824 H   0  0  0  0  0  0  0  0  0  0  0  0
  -39.2640   11.0085  -21.7476 H   0  0  0  0  0  0  0  0  0  0  0  0
  -41.5331   12.5281  -21.3676 H   0  0  0  0  0  0  0  0  0  0  0  0
  -43.1879    8.6976  -32.5207 H   0  0  0  0  0  0  0  0  0  0  0  0
  -37.6634    6.2853  -26.7152 H   0  0  0  0  0  0  0  0  0  0  0  0
  -37.0803    4.0609  -27.6748 H   0  0  0  0  0  0  0  0  0  0  0  0
  -38.1991    2.2047  -23.8916 H   0  0  0  0  0  0  0  0  0  0  0  0
  -38.7947    4.4403  -22.9365 H   0  0  0  0  0  0  0  0  0  0  0  0
  -36.5229    1.8619  -27.2926 H   0  0  0  0  0  0  0  0  0  0  0  0
  -36.5365    0.9708  -24.4720 H   0  0  0  0  0  0  0  0  0  0  0  0
  -36.5217   -0.3209  -25.7202 H   0  0  0  0  0  0  0  0  0  0  0  0
  -35.2450    0.9427  -25.7202 H   0  0  0  0  0  0  0  0  0  0  0  0
  -39.0008    0.4848  -26.1608 H   0  0  0  0  0  0  0  0  0  0  0  0
  -38.9992    1.5436  -27.6119 H   0  0  0  0  0  0  0  0  0  0  0  0
  -38.0502    0.0185  -27.6119 H   0  0  0  0  0  0  0  0  0  0  0  0
  -41.9219    5.4923  -26.0739 H   0  0  0  0  0  0  0  0  0  0  0  0
  -42.2970    5.5362  -28.5478 H   0  0  0  0  0  0  0  0  0  0  0  0
  -39.3382    8.6937  -28.9304 H   0  0  0  0  0  0  0  0  0  0  0  0
  -39.0448    8.7146  -26.4603 H   0  0  0  0  0  0  0  0  0  0  0  0
  -40.9364    6.3782  -22.6463 H   0  0  0  0  0  0  0  0  0  0  0  0
  -42.1438    6.4208  -23.9756 H   0  0  0  0  0  0  0  0  0  0  0  0
  -40.8517    5.1729  -23.9756 H   0  0  0  0  0  0  0  0  0  0  0  0
  -41.2060    6.1743  -30.8397 H   0  0  0  0  0  0  0  0  0  0  0  0
  -41.0633    9.2497  -30.8155 H   0  0  0  0  0  0  0  0  0  0  0  0
  -42.4105    8.8180  -25.0212 H   0  0  0  0  0  0  0  0  0  0  0  0
  -37.4867    9.1719  -23.0774 H   0  0  0  0  0  0  0  0  0  0  0  0
  -38.2714    8.6439  -21.5050 H   0  0  0  0  0  0  0  0  0  0  0  0
  -38.7148    6.5227  -22.2680 H   0  0  0  0  0  0  0  0  0  0  0  0
  -37.0934    6.8994  -23.0163 H   0  0  0  0  0  0  0  0  0  0  0  0
  5 24  2  0
  6 24  1  0
 24 23  1  0
 23 22  2  0
 22 18  1  0
 18 19  2  0
 18 17  1  0
 19 20  1  0
 17 16  2  0
 14 12  1  0
 20 15  2  0
 16 15  1  0
  8  7  2  0
  8  9  1  0
 12  9  1  0
 12 13  1  0
  7 32  1  0
 15 31  1  0
  9 10  2  0
 32 30  1  0
 32 11  2  0
 31 30  1  0
 31 26  1  0
 31 21  1  0
 10 11  1  0
 30 29  1  0
 27 26  1  0
 27  1  2  0
 26 25  2  0
  1  2  1  0
 25 28  1  0
 25  3  1  0
 29 28  1  0
  2  3  2  0
  2  4  1  0
  1 33  1  0
  3 34  1  0
  4 35  1  0
  6 36  1  0
  7 37  1  0
  8 38  1  0
 10 39  1  0
 11 40  1  0
 12 41  1  0
 13 42  1  0
 13 43  1  0
 13 44  1  0
 14 45  1  0
 14 46  1  0
 14 47  1  0
 16 48  1  0
 17 49  1  0
 19 50  1  0
 20 51  1  0
 21 52  1  0
 21 53  1  0
 21 54  1  0
 22 55  1  0
 23 56  1  0
 27 57  1  0
 28 58  1  0
 28 59  1  0
 29 60  1  0
 29 61  1  0
A    1
C1
A    2
C2
A    3
C3
A    4
O1
A    5
O2
A    6
O3
A    7
C11
A    8
C12
A    9
C13
A   10
C14
A   11
C15
A   12
C16
A   13
C17
A   14
C18
A   15
C19
A   16
C20
A   17
C21
A   18
C22
A   19
C23
A   20
C24
A   21
C25
A   22
C26
A   23
C27
A   24
C28
A   25
C4
A   26
C5
A   27
C6
A   28
C7
A   29
C8
A   30
N1
A   31
C9
A   32
C10
M  END
