5TA8_79C_A_402
     RDKit          3D

 74 78  0  0  0  0  0  0  0  0999 V2000
    0.0840   21.0790   70.0630 C   0  0  0  0  0  0  0  0  0  0  0  0
   -1.0460   20.8000   69.2880 C   0  0  0  0  0  0  0  0  0  0  0  0
   -1.5040   21.7770   68.3820 C   0  0  0  0  0  0  0  0  0  0  0  0
   -0.8550   22.9980   68.2540 C   0  0  0  0  0  0  0  0  0  0  0  0
    0.2790   23.2720   69.0300 C   0  0  0  0  0  0  0  0  0  0  0  0
    0.9220   25.5050   68.0140 C   0  0  0  0  0  0  0  0  0  0  0  0
    0.8400   27.5680   66.2590 C   0  0  0  0  0  0  0  0  0  0  0  0
    0.7080   30.0190   66.0040 C   0  0  0  0  0  0  0  0  0  0  0  0
   -0.3500   26.3000   63.6980 C   0  0  0  0  0  0  0  0  0  0  0  0
   -3.1560   25.6230   64.2510 C   0  0  0  0  0  0  0  0  0  0  0  0
   -2.5130   23.2890   63.8200 C   0  0  0  0  0  0  0  0  0  0  0  0
   -0.0230   26.4540   66.1070 C   0  0  0  0  0  0  0  0  0  0  0  0
    2.8020   21.5530   70.9740 C   0  0  0  0  0  0  0  0  0  0  0  0
    1.8390   22.5810   70.7030 O   0  0  0  0  0  0  0  0  0  0  0  0
    0.7390   22.3000   69.9390 C   0  0  0  0  0  0  0  0  0  0  0  0
    1.0080   24.4770   68.9560 N   0  0  0  0  0  0  0  0  0  0  0  0
    1.7360   26.5450   68.1740 N   0  0  0  0  0  0  0  0  0  0  0  0
    1.7200   27.5790   67.3340 C   0  0  0  0  0  0  0  0  0  0  0  0
    0.7660   28.6850   65.3910 N   0  0  0  0  0  0  0  0  0  0  0  0
    0.6720   28.6110   64.0370 C   0  0  0  0  0  0  0  0  0  0  0  0
    0.5910   29.6370   63.3820 O   0  0  0  0  0  0  0  0  0  0  0  0
    0.7190   27.3030   63.3020 C   0  0  0  0  0  0  0  0  0  0  0  0
    0.5260   27.5690   61.9430 F   0  0  0  0  0  0  0  0  0  0  0  0
    1.9790   26.7210   63.4940 F   0  0  0  0  0  0  0  0  0  0  0  0
   -0.9320   26.3980   65.0420 N   0  0  0  0  0  0  0  0  0  0  0  0
   -1.9280   25.3140   65.1490 C   0  0  0  0  0  0  0  0  0  0  0  0
   -3.7390   24.2270   63.9150 C   0  0  0  0  0  0  0  0  0  0  0  0
   -1.3740   23.9750   64.5940 C   0  0  0  0  0  0  0  0  0  0  0  0
    0.0590   25.4620   67.0020 N   0  0  0  0  0  0  0  0  0  0  0  0
   -1.7250   19.4870   69.4240 C   0  0  0  0  0  0  0  0  0  0  0  0
   -1.7390   18.9060   70.4920 O   0  0  0  0  0  0  0  0  0  0  0  0
   -2.3060   18.9240   68.3380 N   0  0  0  0  0  0  0  0  0  0  0  0
   -3.0030   17.6320   68.3450 C   0  0  0  0  0  0  0  0  0  0  0  0
   -4.2340   17.7630   67.4310 C   0  0  0  0  0  0  0  0  0  0  0  0
   -4.9440   16.4190   67.2340 C   0  0  0  0  0  0  0  0  0  0  0  0
   -3.9840   15.4340   66.7080 N   0  0  0  0  0  0  0  0  0  0  0  0
   -4.6590   14.1650   66.3960 C   0  0  0  0  0  0  0  0  0  0  0  0
   -2.8380   15.2240   67.6180 C   0  0  0  0  0  0  0  0  0  0  0  0
   -2.0590   16.5320   67.8340 C   0  0  0  0  0  0  0  0  0  0  0  0
    0.4573   20.3283   70.7751 H   0  0  0  0  0  0  0  0  0  0  0  0
   -2.3909   21.5690   67.7655 H   0  0  0  0  0  0  0  0  0  0  0  0
   -1.2309   23.7494   67.5440 H   0  0  0  0  0  0  0  0  0  0  0  0
    0.7123   29.9196   67.0995 H   0  0  0  0  0  0  0  0  0  0  0  0
    1.5814   30.6071   65.6857 H   0  0  0  0  0  0  0  0  0  0  0  0
   -0.2132   30.5290   65.6857 H   0  0  0  0  0  0  0  0  0  0  0  0
   -1.1750   26.4017   62.9776 H   0  0  0  0  0  0  0  0  0  0  0  0
    0.1725   25.3320   63.6982 H   0  0  0  0  0  0  0  0  0  0  0  0
   -2.8477   26.1483   63.3350 H   0  0  0  0  0  0  0  0  0  0  0  0
   -3.8876   26.2780   64.7468 H   0  0  0  0  0  0  0  0  0  0  0  0
   -2.7454   22.3135   64.2721 H   0  0  0  0  0  0  0  0  0  0  0  0
   -2.2297   23.1111   62.7721 H   0  0  0  0  0  0  0  0  0  0  0  0
    2.9142   21.4332   72.0617 H   0  0  0  0  0  0  0  0  0  0  0  0
    2.4597   20.6047   70.5341 H   0  0  0  0  0  0  0  0  0  0  0  0
    3.7706   21.8328   70.5341 H   0  0  0  0  0  0  0  0  0  0  0  0
    1.7028   24.6194   69.7029 H   0  0  0  0  0  0  0  0  0  0  0  0
    2.3964   28.4324   67.4900 H   0  0  0  0  0  0  0  0  0  0  0  0
   -2.1828   25.2393   66.2165 H   0  0  0  0  0  0  0  0  0  0  0  0
   -4.2789   24.2546   62.9570 H   0  0  0  0  0  0  0  0  0  0  0  0
   -4.4588   23.8879   64.6745 H   0  0  0  0  0  0  0  0  0  0  0  0
   -1.0434   23.3326   65.4235 H   0  0  0  0  0  0  0  0  0  0  0  0
   -0.5117   24.1556   63.9353 H   0  0  0  0  0  0  0  0  0  0  0  0
   -2.2554   19.4372   67.4464 H   0  0  0  0  0  0  0  0  0  0  0  0
   -3.3189   17.3593   69.3628 H   0  0  0  0  0  0  0  0  0  0  0  0
   -3.9103   18.1415   66.4502 H   0  0  0  0  0  0  0  0  0  0  0  0
   -4.9419   18.4561   67.9091 H   0  0  0  0  0  0  0  0  0  0  0  0
   -5.7723   16.5420   66.5207 H   0  0  0  0  0  0  0  0  0  0  0  0
   -5.3418   16.0677   68.1975 H   0  0  0  0  0  0  0  0  0  0  0  0
   -4.9306   13.6544   67.3317 H   0  0  0  0  0  0  0  0  0  0  0  0
   -5.5686   14.3675   65.8115 H   0  0  0  0  0  0  0  0  0  0  0  0
   -3.9827   13.5240   65.8115 H   0  0  0  0  0  0  0  0  0  0  0  0
   -3.2104   14.8627   68.5880 H   0  0  0  0  0  0  0  0  0  0  0  0
   -2.1618   14.4841   67.1650 H   0  0  0  0  0  0  0  0  0  0  0  0
   -1.2630   16.3632   68.5742 H   0  0  0  0  0  0  0  0  0  0  0  0
   -1.6197   16.8510   66.8773 H   0  0  0  0  0  0  0  0  0  0  0  0
 23 22  1  0
 22 24  1  0
 22  9  1  0
 22 20  1  0
 21 20  2  0
  9 25  1  0
 11 27  1  0
 11 28  1  0
 27 10  1  0
 20 19  1  0
 10 26  1  0
 28 26  1  0
 25 26  1  0
 25 12  1  0
 19  8  1  0
 19  7  1  0
 12  7  2  0
 12 29  1  0
  7 18  1  0
 37 36  1  0
 36 35  1  0
 36 38  1  0
 29  6  2  0
 35 34  1  0
 18 17  2  0
 34 33  1  0
 38 39  1  0
 39 33  1  0
  6 17  1  0
  6 16  1  0
  4  3  2  0
  4  5  1  0
 32 33  1  0
 32 30  1  0
  3  2  1  0
 16  5  1  0
  5 15  2  0
  2 30  1  0
  2  1  2  0
 30 31  2  0
 15  1  1  0
 15 14  1  0
 14 13  1  0
  1 40  1  0
  3 41  1  0
  4 42  1  0
  8 43  1  0
  8 44  1  0
  8 45  1  0
  9 46  1  0
  9 47  1  0
 10 48  1  0
 10 49  1  0
 11 50  1  0
 11 51  1  0
 13 52  1  0
 13 53  1  0
 13 54  1  0
 16 55  1  0
 18 56  1  0
 26 57  1  0
 27 58  1  0
 27 59  1  0
 28 60  1  0
 28 61  1  0
 32 62  1  0
 33 63  1  0
 34 64  1  0
 34 65  1  0
 35 66  1  0
 35 67  1  0
 37 68  1  0
 37 69  1  0
 37 70  1  0
 38 71  1  0
 38 72  1  0
 39 73  1  0
 39 74  1  0
A    1
C4
A    2
C5
A    3
C6
A    4
C7
A    5
C8
A    6
C10
A    7
C13
A    8
C15
A    9
C21
A   10
C24
A   11
C26
A   12
C28
A   13
C1
A   14
O2
A   15
C3
A   16
N9
A   17
N11
A   18
C12
A   19
N14
A   20
C16
A   21
O17
A   22
C18
A   23
F19
A   24
F20
A   25
N22
A   26
C23
A   27
C25
A   28
C27
A   29
N29
A   30
C30
A   31
O31
A   32
N32
A   33
C33
A   34
C34
A   35
C35
A   36
N36
A   37
C37
A   38
C38
A   39
C39
M  END
