5LUU_77X_A_203
     RDKit          3D

 36 38  0  0  0  0  0  0  0  0999 V2000
   31.7020   18.7150    2.1070 C   0  0  0  0  0  0  0  0  0  0  0  0
   32.1770   18.7950    0.6800 C   0  0  0  0  0  0  0  0  0  0  0  0
   33.2080   17.6900    0.3510 C   0  0  0  0  0  0  0  0  0  0  0  0
   34.3680   18.0210    0.1290 O   0  0  0  0  0  0  0  0  0  0  0  0
   32.8460   16.4230    0.1850 N   0  0  0  0  0  0  0  0  0  0  0  0
   33.8590   15.4510   -0.2800 C   0  0  0  0  0  0  0  0  0  0  0  0
   33.6580   15.2790   -1.8020 C   0  0  0  0  0  0  0  0  0  0  0  0
   31.4450   15.9410    0.2460 C   0  0  0  0  0  0  0  0  0  0  0  0
   31.1760   15.4290   -1.1590 C   0  0  0  0  0  0  0  0  0  0  0  0
   32.1670   15.1330   -2.0800 C   0  0  0  0  0  0  0  0  0  0  0  0
   31.5610   14.7220   -3.1970 N   0  0  0  0  0  0  0  0  0  0  0  0
   30.3320   14.7260   -3.0120 N   0  0  0  0  0  0  0  0  0  0  0  0
   29.9790   15.1540   -1.7930 C   0  0  0  0  0  0  0  0  0  0  0  0
   28.6860   15.2310   -1.2260 C   0  0  0  0  0  0  0  0  0  0  0  0
   28.4580   15.0370    0.1490 C   0  0  0  0  0  0  0  0  0  0  0  0
   27.1850   15.0300    0.7460 C   0  0  0  0  0  0  0  0  0  0  0  0
   26.0810   15.2050   -0.0550 C   0  0  0  0  0  0  0  0  0  0  0  0
   26.2930   15.3800   -1.4220 C   0  0  0  0  0  0  0  0  0  0  0  0
   27.5580   15.3810   -2.0280 C   0  0  0  0  0  0  0  0  0  0  0  0
   32.5553   18.8587    2.7861 H   0  0  0  0  0  0  0  0  0  0  0  0
   30.9527   19.4996    2.2886 H   0  0  0  0  0  0  0  0  0  0  0  0
   31.2510   17.7283    2.2886 H   0  0  0  0  0  0  0  0  0  0  0  0
   32.6441   19.7772    0.5155 H   0  0  0  0  0  0  0  0  0  0  0  0
   31.3060   18.6543    0.0230 H   0  0  0  0  0  0  0  0  0  0  0  0
   33.7190   14.4867    0.2305 H   0  0  0  0  0  0  0  0  0  0  0  0
   34.8754   15.8077   -0.0570 H   0  0  0  0  0  0  0  0  0  0  0  0
   34.1895   14.3798   -2.1471 H   0  0  0  0  0  0  0  0  0  0  0  0
   34.0567   16.1543   -2.3358 H   0  0  0  0  0  0  0  0  0  0  0  0
   30.7590   16.7619    0.5019 H   0  0  0  0  0  0  0  0  0  0  0  0
   31.2937   15.1700    1.0158 H   0  0  0  0  0  0  0  0  0  0  0  0
   32.0347   14.4467   -4.0692 H   0  0  0  0  0  0  0  0  0  0  0  0
   29.3319   14.8808    0.7985 H   0  0  0  0  0  0  0  0  0  0  0  0
   27.0745   14.8875    1.8311 H   0  0  0  0  0  0  0  0  0  0  0  0
   25.0656   15.2069    0.3681 H   0  0  0  0  0  0  0  0  0  0  0  0
   25.4130   15.5265   -2.0655 H   0  0  0  0  0  0  0  0  0  0  0  0
   27.6570   15.4982   -3.1173 H   0  0  0  0  0  0  0  0  0  0  0  0
 11 12  1  0
 11 10  1  0
 12 13  2  0
 10  7  1  0
 10  9  2  0
 19 18  2  0
 19 14  1  0
  7  6  1  0
 13 14  1  0
 13  9  1  0
 18 17  1  0
 14 15  2  0
  9  8  1  0
  6  5  1  0
 17 16  2  0
  4  3  2  0
 15 16  1  0
  5  8  1  0
  5  3  1  0
  3  2  1  0
  2  1  1  0
  1 20  1  0
  1 21  1  0
  1 22  1  0
  2 23  1  0
  2 24  1  0
  6 25  1  0
  6 26  1  0
  7 27  1  0
  7 28  1  0
  8 29  1  0
  8 30  1  0
 11 31  1  0
 15 32  1  0
 16 33  1  0
 17 34  1  0
 18 35  1  0
 19 36  1  0
A    1
CAS
A    2
CAR
A    3
CAP
A    4
OAQ
A    5
NAH
A    6
CAG
A    7
CAF
A    8
CAI
A    9
CAD
A   10
CAC
A   11
NAB
A   12
NAA
A   13
CAE
A   14
CAJ
A   15
CAK
A   16
CAL
A   17
CAM
A   18
CAN
A   19
CAO
M  END
