5LV4_78K_A_401
     RDKit          3D

 68 71  0  0  0  0  0  0  0  0999 V2000
   23.4300   -8.7470    4.1680 C   0  0  0  0  0  0  0  0  0  0  0  0
   22.3750  -13.0860    6.4380 C   0  0  0  0  0  0  0  0  0  0  0  0
   24.2470   -7.7000    3.4930 C   0  0  0  0  0  0  0  0  0  0  0  0
   25.4770   -7.9590    2.7660 C   0  0  0  0  0  0  0  0  0  0  0  0
   25.8720   -5.6590    2.4990 C   0  0  0  0  0  0  0  0  0  0  0  0
   23.8910   -6.4100    3.6180 C   0  0  0  0  0  0  0  0  0  0  0  0
   24.2360   -4.0310    3.5280 C   0  0  0  0  0  0  0  0  0  0  0  0
   22.2160   -3.8760    2.2520 C   0  0  0  0  0  0  0  0  0  0  0  0
   17.9930   -9.9220   -4.4600 C   0  0  0  0  0  0  0  0  0  0  0  0
   19.0010   -9.5070   -3.5780 C   0  0  0  0  0  0  0  0  0  0  0  0
   19.6480  -10.4890   -2.8500 C   0  0  0  0  0  0  0  0  0  0  0  0
   19.4140  -11.7990   -2.8950 N   0  0  0  0  0  0  0  0  0  0  0  0
   18.4380  -12.0820   -3.7600 C   0  0  0  0  0  0  0  0  0  0  0  0
   17.7250  -11.2460   -4.5250 N   0  0  0  0  0  0  0  0  0  0  0  0
   20.5710   -9.8370   -2.0740 N   0  0  0  0  0  0  0  0  0  0  0  0
   20.4280   -8.5080   -2.3680 C   0  0  0  0  0  0  0  0  0  0  0  0
   19.5030   -8.2520   -3.2580 N   0  0  0  0  0  0  0  0  0  0  0  0
   21.4800  -10.4380   -1.1090 C   0  0  0  0  0  0  0  0  0  0  0  0
   21.0510  -10.0660    0.1750 O   0  0  0  0  0  0  0  0  0  0  0  0
   22.1480  -10.4000    1.0620 C   0  0  0  0  0  0  0  0  0  0  0  0
   23.4340  -10.2690    0.2300 C   0  0  0  0  0  0  0  0  0  0  0  0
   22.9200   -9.9650   -1.1890 C   0  0  0  0  0  0  0  0  0  0  0  0
   23.6410  -10.6770   -2.1820 O   0  0  0  0  0  0  0  0  0  0  0  0
   24.2210  -11.4620    0.3060 O   0  0  0  0  0  0  0  0  0  0  0  0
   22.0860   -9.5120    2.2670 C   0  0  0  0  0  0  0  0  0  0  0  0
   23.1270   -9.9020    3.2700 N   0  0  0  0  0  0  0  0  0  0  0  0
   17.3100   -9.0910   -5.2510 N   0  0  0  0  0  0  0  0  0  0  0  0
   26.2310   -6.9590    2.2980 N   0  0  0  0  0  0  0  0  0  0  0  0
   24.6680   -5.3860    3.1540 N   0  0  0  0  0  0  0  0  0  0  0  0
   25.8840   -9.2100    2.5530 N   0  0  0  0  0  0  0  0  0  0  0  0
   23.5280   -3.3720    2.5140 O   0  0  0  0  0  0  0  0  0  0  0  0
   26.6070   -4.7130    2.1850 O   0  0  0  0  0  0  0  0  0  0  0  0
   22.8180  -11.1580    4.0270 C   0  0  0  0  0  0  0  0  0  0  0  0
   21.6050  -11.0170    4.9370 C   0  0  0  0  0  0  0  0  0  0  0  0
   21.4060  -11.9100    6.1180 C   0  0  0  0  0  0  0  0  0  0  0  0
   19.9880  -12.1760    6.4180 N   0  0  0  0  0  0  0  0  0  0  0  0
   22.0030  -13.4840    7.6140 O   0  0  0  0  0  0  0  0  0  0  0  0
   23.3680  -13.4510    5.8630 O   0  0  0  0  0  0  0  0  0  0  0  0
   22.4815   -8.2972    4.4967 H   0  0  0  0  0  0  0  0  0  0  0  0
   24.0124   -9.1288    5.0195 H   0  0  0  0  0  0  0  0  0  0  0  0
   22.9383   -6.1694    4.1124 H   0  0  0  0  0  0  0  0  0  0  0  0
   25.1281   -3.4361    3.7734 H   0  0  0  0  0  0  0  0  0  0  0  0
   23.5548   -4.1329    4.3857 H   0  0  0  0  0  0  0  0  0  0  0  0
   21.7021   -4.0734    3.2043 H   0  0  0  0  0  0  0  0  0  0  0  0
   21.6461   -3.1328    1.6750 H   0  0  0  0  0  0  0  0  0  0  0  0
   22.2903   -4.8096    1.6750 H   0  0  0  0  0  0  0  0  0  0  0  0
   18.1847  -13.1479   -3.8579 H   0  0  0  0  0  0  0  0  0  0  0  0
   21.0377   -7.7229   -1.8971 H   0  0  0  0  0  0  0  0  0  0  0  0
   21.4596  -11.5162   -1.3257 H   0  0  0  0  0  0  0  0  0  0  0  0
   22.1045  -11.4261    1.4559 H   0  0  0  0  0  0  0  0  0  0  0  0
   24.1124   -9.4805    0.5879 H   0  0  0  0  0  0  0  0  0  0  0  0
   23.0314   -8.9089   -1.4758 H   0  0  0  0  0  0  0  0  0  0  0  0
   24.2735  -11.3016   -1.7463 H   0  0  0  0  0  0  0  0  0  0  0  0
   24.3752  -11.6957    1.2556 H   0  0  0  0  0  0  0  0  0  0  0  0
   22.2568   -8.4706    1.9565 H   0  0  0  0  0  0  0  0  0  0  0  0
   21.0939   -9.6160    2.7305 H   0  0  0  0  0  0  0  0  0  0  0  0
   16.7110   -8.3622   -4.8375 H   0  0  0  0  0  0  0  0  0  0  0  0
   17.3821   -9.1787   -6.2747 H   0  0  0  0  0  0  0  0  0  0  0  0
   26.0854   -9.8290    3.3512 H   0  0  0  0  0  0  0  0  0  0  0  0
   25.9972   -9.5579    1.5901 H   0  0  0  0  0  0  0  0  0  0  0  0
   22.6233  -11.9645    3.3047 H   0  0  0  0  0  0  0  0  0  0  0  0
   23.6857  -11.3813    4.6651 H   0  0  0  0  0  0  0  0  0  0  0  0
   21.6272   -9.9884    5.3262 H   0  0  0  0  0  0  0  0  0  0  0  0
   20.7778  -11.3132    4.2752 H   0  0  0  0  0  0  0  0  0  0  0  0
   21.8195  -11.2339    6.8809 H   0  0  0  0  0  0  0  0  0  0  0  0
   19.8519  -12.2015    7.4387 H   0  0  0  0  0  0  0  0  0  0  0  0
   19.4054  -11.4296    6.0125 H   0  0  0  0  0  0  0  0  0  0  0  0
   22.3921  -13.0677    8.4235 H   0  0  0  0  0  0  0  0  0  0  0  0
 27  9  1  0
 14  9  2  0
 14 13  1  0
  9 10  1  0
 13 12  2  0
 10 17  1  0
 10 11  2  0
 17 16  2  0
 12 11  1  0
 11 15  1  0
 16 15  1  0
 23 22  1  0
 15 18  1  0
 22 18  1  0
 22 21  1  0
 18 19  1  0
 19 20  1  0
 21 24  1  0
 21 20  1  0
 20 25  1  0
 32  5  2  0
  8 31  1  0
 25 26  1  0
 28  5  1  0
 28  4  2  0
  5 29  1  0
 31  7  1  0
 30  4  1  0
  4  3  1  0
 29  7  1  0
 29  6  1  0
 26 33  1  0
 26  1  1  0
  3  6  2  0
  3  1  1  0
 33 34  1  0
 34 35  1  0
 38  2  2  0
 35 36  1  0
 35  2  1  0
  2 37  1  0
  1 39  1  0
  1 40  1  0
  6 41  1  0
  7 42  1  0
  7 43  1  0
  8 44  1  0
  8 45  1  0
  8 46  1  0
 13 47  1  0
 16 48  1  0
 18 49  1  0
 20 50  1  0
 21 51  1  0
 22 52  1  0
 23 53  1  0
 24 54  1  0
 25 55  1  0
 25 56  1  0
 27 57  1  0
 27 58  1  0
 30 59  1  0
 30 60  1  0
 33 61  1  0
 33 62  1  0
 34 63  1  0
 34 64  1  0
 35 65  1  0
 36 66  1  0
 36 67  1  0
 37 68  1  0
A    1
C11
A    2
C21
A    3
C12
A    4
C13
A    5
C14
A    6
C15
A    7
C16
A    8
C17
A    9
C1
A   10
C2
A   11
C3
A   12
N1
A   13
C4
A   14
N2
A   15
N3
A   16
C5
A   17
N4
A   18
C6
A   19
O1
A   20
C7
A   21
C8
A   22
C9
A   23
O2
A   24
O3
A   25
C10
A   26
N5
A   27
N6
A   28
N7
A   29
N8
A   30
N9
A   31
O4
A   32
O5
A   33
C18
A   34
C19
A   35
C20
A   36
N10
A   37
O6
A   38
O7
M  END
