5TBI_78V_B_504
     RDKit          3D

 57 60  0  0  0  0  0  0  0  0999 V2000
   26.1310   18.9860  125.4830 N   0  0  0  0  0  0  0  0  0  0  0  0
   24.9830   19.0380  123.4170 N   0  0  0  0  0  0  0  0  0  0  0  0
   23.6070   20.3010  121.4370 C   0  0  0  0  0  0  0  0  0  0  0  0
   25.7640   18.3580  124.2920 C   0  0  0  0  0  0  0  0  0  0  0  0
   24.5640   20.2640  123.7110 C   0  0  0  0  0  0  0  0  0  0  0  0
   23.9260   24.8850  116.1720 N   0  0  0  0  0  0  0  0  0  0  0  0
   24.5140   20.5850  119.1780 N   0  0  0  0  0  0  0  0  0  0  0  0
   25.6350   20.2140  125.7860 C   0  0  0  0  0  0  0  0  0  0  0  0
   23.5770   22.6510  116.7290 O   0  0  0  0  0  0  0  0  0  0  0  0
   28.7180   20.1170  125.6990 C   0  0  0  0  0  0  0  0  0  0  0  0
   28.0530   19.4760  126.7780 O   0  0  0  0  0  0  0  0  0  0  0  0
   26.1250   17.2000  124.0920 O   0  0  0  0  0  0  0  0  0  0  0  0
   27.1720   18.4660  126.3730 C   0  0  0  0  0  0  0  0  0  0  0  0
   24.8520   20.8910  124.9410 C   0  0  0  0  0  0  0  0  0  0  0  0
   23.8780   20.8880  122.7390 N   0  0  0  0  0  0  0  0  0  0  0  0
   23.9620   21.2810  120.3420 C   0  0  0  0  0  0  0  0  0  0  0  0
   23.6660   20.5920  117.9850 C   0  0  0  0  0  0  0  0  0  0  0  0
   24.2830   21.4030  116.8590 C   0  0  0  0  0  0  0  0  0  0  0  0
   25.7770   21.7690  116.9410 C   0  0  0  0  0  0  0  0  0  0  0  0
   26.5050   21.0570  115.9480 O   0  0  0  0  0  0  0  0  0  0  0  0
   25.8100   23.2850  116.6740 C   0  0  0  0  0  0  0  0  0  0  0  0
   26.8420   23.6440  115.7620 O   0  0  0  0  0  0  0  0  0  0  0  0
   24.4410   23.5250  116.0480 C   0  0  0  0  0  0  0  0  0  0  0  0
   23.3590   25.6360  115.1710 C   0  0  0  0  0  0  0  0  0  0  0  0
   23.1770   25.2820  113.8950 N   0  0  0  0  0  0  0  0  0  0  0  0
   22.5660   26.2530  113.2120 C   0  0  0  0  0  0  0  0  0  0  0  0
   22.1570   27.4510  113.6410 N   0  0  0  0  0  0  0  0  0  0  0  0
   22.3640   27.7840  114.9330 C   0  0  0  0  0  0  0  0  0  0  0  0
   21.9710   28.9890  115.3530 N   0  0  0  0  0  0  0  0  0  0  0  0
   22.9950   26.8350  115.7600 C   0  0  0  0  0  0  0  0  0  0  0  0
   23.3290   26.8440  117.1050 N   0  0  0  0  0  0  0  0  0  0  0  0
   23.8770   25.6670  117.2960 C   0  0  0  0  0  0  0  0  0  0  0  0
   22.5387   20.0483  121.3669 H   0  0  0  0  0  0  0  0  0  0  0  0
   24.2149   19.3920  121.3180 H   0  0  0  0  0  0  0  0  0  0  0  0
   24.6815   19.6040  119.4437 H   0  0  0  0  0  0  0  0  0  0  0  0
   25.8859   20.6651  126.7574 H   0  0  0  0  0  0  0  0  0  0  0  0
   29.4569   20.8292  126.0949 H   0  0  0  0  0  0  0  0  0  0  0  0
   29.2294   19.3624  125.0832 H   0  0  0  0  0  0  0  0  0  0  0  0
   27.9827   20.6557  125.0832 H   0  0  0  0  0  0  0  0  0  0  0  0
   26.6957   18.0292  127.2631 H   0  0  0  0  0  0  0  0  0  0  0  0
   27.7474   17.7062  125.8238 H   0  0  0  0  0  0  0  0  0  0  0  0
   24.4531   21.8850  125.1915 H   0  0  0  0  0  0  0  0  0  0  0  0
   23.5238   21.8367  122.9271 H   0  0  0  0  0  0  0  0  0  0  0  0
   24.7087   21.9929  120.7237 H   0  0  0  0  0  0  0  0  0  0  0  0
   23.0485   21.8111  120.0345 H   0  0  0  0  0  0  0  0  0  0  0  0
   22.6900   21.0281  118.2445 H   0  0  0  0  0  0  0  0  0  0  0  0
   23.5557   19.5540  117.6380 H   0  0  0  0  0  0  0  0  0  0  0  0
   24.1944   20.7130  116.0069 H   0  0  0  0  0  0  0  0  0  0  0  0
   26.2336   21.5113  117.9080 H   0  0  0  0  0  0  0  0  0  0  0  0
   27.1398   20.4362  116.3859 H   0  0  0  0  0  0  0  0  0  0  0  0
   26.0104   23.8775  117.5789 H   0  0  0  0  0  0  0  0  0  0  0  0
   27.6462   23.9237  116.2671 H   0  0  0  0  0  0  0  0  0  0  0  0
   24.5181   23.3565  114.9637 H   0  0  0  0  0  0  0  0  0  0  0  0
   22.3727   26.0375  112.1508 H   0  0  0  0  0  0  0  0  0  0  0  0
   21.9064   29.1870  116.3617 H   0  0  0  0  0  0  0  0  0  0  0  0
   21.7324   29.7205  114.6683 H   0  0  0  0  0  0  0  0  0  0  0  0
   24.2628   25.3374  118.2720 H   0  0  0  0  0  0  0  0  0  0  0  0
 26 27  1  0
 26 25  2  0
 27 28  2  0
 25 24  1  0
 28 29  1  0
 28 30  1  0
 24 30  2  0
 24  6  1  0
 30 31  1  0
 22 21  1  0
 20 19  1  0
 23  6  1  0
 23 21  1  0
 23  9  1  0
  6 32  1  0
 21 19  1  0
  9 18  1  0
 18 19  1  0
 18 17  1  0
 31 32  2  0
 17  7  1  0
  7 16  1  0
 16  3  1  0
  3 15  1  0
 15  5  1  0
  2  5  2  0
  2  4  1  0
  5 14  1  0
 12  4  2  0
  4  1  1  0
 14  8  2  0
  1  8  1  0
  1 13  1  0
 10 11  1  0
 13 11  1  0
  3 33  1  0
  3 34  1  0
  7 35  1  0
  8 36  1  0
 10 37  1  0
 10 38  1  0
 10 39  1  0
 13 40  1  0
 13 41  1  0
 14 42  1  0
 15 43  1  0
 16 44  1  0
 16 45  1  0
 17 46  1  0
 17 47  1  0
 18 48  1  0
 19 49  1  0
 20 50  1  0
 21 51  1  0
 22 52  1  0
 23 53  1  0
 26 54  1  0
 29 55  1  0
 29 56  1  0
 32 57  1  0
A    1
N
A    2
N1
A    3
C6
A    4
C5
A    5
C4
A    6
N4
A    7
N3
A    8
C2
A    9
O2
A   10
C
A   11
O
A   12
O1
A   13
C1
A   14
C3
A   15
N2
A   16
C7
A   17
C8
A   18
C9
A   19
C12
A   20
O4
A   21
C11
A   22
O3
A   23
C10
A   24
C15
A   25
N6
A   26
C16
A   27
N7
A   28
C17
A   29
N8
A   30
C14
A   31
N5
A   32
C13
M  END
