5TBJ_LHD_A_501
     RDKit          3D

 58 61  0  0  0  0  0  0  0  0999 V2000
   50.8410   41.2690  126.1390 C   0  0  0  0  0  0  0  0  0  0  0  0
   50.6920   40.0390  126.8070 C   0  0  0  0  0  0  0  0  0  0  0  0
   50.5800   40.0830  128.1860 C   0  0  0  0  0  0  0  0  0  0  0  0
   50.6050   41.1760  128.9580 N   0  0  0  0  0  0  0  0  0  0  0  0
   50.7610   42.2770  128.2190 C   0  0  0  0  0  0  0  0  0  0  0  0
   50.8760   42.3890  126.8920 N   0  0  0  0  0  0  0  0  0  0  0  0
   50.4600   38.7760  128.5900 N   0  0  0  0  0  0  0  0  0  0  0  0
   50.5120   38.0250  127.4500 C   0  0  0  0  0  0  0  0  0  0  0  0
   50.6490   38.7300  126.3520 N   0  0  0  0  0  0  0  0  0  0  0  0
   50.2940   38.2800  129.9580 C   0  0  0  0  0  0  0  0  0  0  0  0
   51.4770   37.6010  130.3320 O   0  0  0  0  0  0  0  0  0  0  0  0
   51.1500   36.4250  131.1090 C   0  0  0  0  0  0  0  0  0  0  0  0
   49.6400   36.4670  131.3210 C   0  0  0  0  0  0  0  0  0  0  0  0
   49.1540   37.2750  130.1160 C   0  0  0  0  0  0  0  0  0  0  0  0
   47.9140   37.9250  130.3750 O   0  0  0  0  0  0  0  0  0  0  0  0
   49.3070   37.0890  132.5560 O   0  0  0  0  0  0  0  0  0  0  0  0
   52.7440   32.9530  130.4760 N   0  0  0  0  0  0  0  0  0  0  0  0
   53.3100   31.8540  131.3050 C   0  0  0  0  0  0  0  0  0  0  0  0
   52.2040   30.8700  131.5020 C   0  0  0  0  0  0  0  0  0  0  0  0
   50.9350   41.3870  124.8110 N   0  0  0  0  0  0  0  0  0  0  0  0
   51.3230   30.8770  132.6410 C   0  0  0  0  0  0  0  0  0  0  0  0
   50.3150   30.0090  132.7700 N   0  0  0  0  0  0  0  0  0  0  0  0
   50.0810   29.0690  131.8160 C   0  0  0  0  0  0  0  0  0  0  0  0
   50.9160   29.0320  130.6990 N   0  0  0  0  0  0  0  0  0  0  0  0
   51.9480   29.9220  130.5820 C   0  0  0  0  0  0  0  0  0  0  0  0
   51.5240   31.7760  133.6100 N   0  0  0  0  0  0  0  0  0  0  0  0
   50.7230   28.0860  129.5910 C   0  0  0  0  0  0  0  0  0  0  0  0
   50.7280   26.7510  130.0110 O   0  0  0  0  0  0  0  0  0  0  0  0
   51.8060   26.4110  130.8640 C   0  0  0  0  0  0  0  0  0  0  0  0
   49.1580   28.2580  131.9010 O   0  0  0  0  0  0  0  0  0  0  0  0
   51.6740   35.1970  130.3930 C   0  0  0  0  0  0  0  0  0  0  0  0
   52.1900   34.0830  131.2810 C   0  0  0  0  0  0  0  0  0  0  0  0
   50.8003   43.2226  128.7797 H   0  0  0  0  0  0  0  0  0  0  0  0
   50.4450   36.9270  127.4524 H   0  0  0  0  0  0  0  0  0  0  0  0
   50.0701   39.1588  130.5806 H   0  0  0  0  0  0  0  0  0  0  0  0
   51.6259   36.3912  132.1001 H   0  0  0  0  0  0  0  0  0  0  0  0
   49.1751   35.4720  131.3828 H   0  0  0  0  0  0  0  0  0  0  0  0
   48.9545   36.6686  129.2202 H   0  0  0  0  0  0  0  0  0  0  0  0
   47.7770   37.9968  131.3528 H   0  0  0  0  0  0  0  0  0  0  0  0
   49.6123   36.5188  133.3055 H   0  0  0  0  0  0  0  0  0  0  0  0
   51.9874   32.5658  129.8941 H   0  0  0  0  0  0  0  0  0  0  0  0
   53.5161   33.3341  129.9107 H   0  0  0  0  0  0  0  0  0  0  0  0
   54.1546   31.3794  130.7841 H   0  0  0  0  0  0  0  0  0  0  0  0
   53.6879   32.2308  132.2669 H   0  0  0  0  0  0  0  0  0  0  0  0
   51.5235   42.1257  124.4000 H   0  0  0  0  0  0  0  0  0  0  0  0
   50.4190   40.7392  124.1986 H   0  0  0  0  0  0  0  0  0  0  0  0
   52.5976   29.8600  129.6964 H   0  0  0  0  0  0  0  0  0  0  0  0
   51.4604   31.4914  134.5978 H   0  0  0  0  0  0  0  0  0  0  0  0
   51.7425   32.7532  133.3687 H   0  0  0  0  0  0  0  0  0  0  0  0
   51.5344   28.2282  128.8620 H   0  0  0  0  0  0  0  0  0  0  0  0
   49.7368   28.2905  129.1487 H   0  0  0  0  0  0  0  0  0  0  0  0
   51.4893   26.5109  131.9127 H   0  0  0  0  0  0  0  0  0  0  0  0
   52.1129   25.3725  130.6710 H   0  0  0  0  0  0  0  0  0  0  0  0
   52.6532   27.0856  130.6710 H   0  0  0  0  0  0  0  0  0  0  0  0
   50.8560   34.7888  129.7812 H   0  0  0  0  0  0  0  0  0  0  0  0
   52.5420   35.5397  129.8106 H   0  0  0  0  0  0  0  0  0  0  0  0
   52.9833   34.4819  131.9303 H   0  0  0  0  0  0  0  0  0  0  0  0
   51.3495   33.7011  131.8790 H   0  0  0  0  0  0  0  0  0  0  0  0
 20  1  1  0
  1  2  2  0
  1  6  1  0
  9  2  1  0
  9  8  2  0
  2  3  1  0
  6  5  2  0
  8  7  1  0
  3  7  1  0
  3  4  2  0
  5  4  1  0
  7 10  1  0
 27 28  1  0
 27 24  1  0
 10 14  1  0
 10 11  1  0
 28 29  1  0
 14 15  1  0
 14 13  1  0
 11 12  1  0
 31 12  1  0
 31 32  1  0
 17 32  1  0
 17 18  1  0
 25 24  1  0
 25 19  2  0
 24 23  1  0
 12 13  1  0
 18 19  1  0
 13 16  1  0
 19 21  1  0
 23 30  2  0
 23 22  1  0
 21 22  2  0
 21 26  1  0
  5 33  1  0
  8 34  1  0
 10 35  1  0
 12 36  1  0
 13 37  1  0
 14 38  1  0
 15 39  1  0
 16 40  1  0
 17 41  1  0
 17 42  1  0
 18 43  1  0
 18 44  1  0
 20 45  1  0
 20 46  1  0
 25 47  1  0
 26 48  1  0
 26 49  1  0
 27 50  1  0
 27 51  1  0
 29 52  1  0
 29 53  1  0
 29 54  1  0
 31 55  1  0
 31 56  1  0
 32 57  1  0
 32 58  1  0
M  CHG  1  17   1
A    1
C1
A    2
C2
A    3
C3
A    4
N1
A    5
C4
A    6
N2
A    7
N3
A    8
C5
A    9
N4
A   10
C6
A   11
O1
A   12
C7
A   13
C8
A   14
C9
A   15
O2
A   16
O3
A   17
N5
A   18
C10
A   19
C11
A   20
N6
A   21
C12
A   22
N7
A   23
C13
A   24
N8
A   25
C14
A   26
N9
A   27
C15
A   28
O4
A   29
C16
A   30
O5
A   31
C17
A   32
C18
M  END
