5TBM_79A_A_401
     RDKit          3D

 38 40  0  0  0  0  0  0  0  0999 V2000
   18.4410    1.9630   -8.6380 N   0  0  0  0  0  0  0  0  0  0  0  0
   18.9930    1.1240   -9.2640 C   0  0  0  0  0  0  0  0  0  0  0  0
   19.6600    0.2230   -9.9320 C   0  0  0  0  0  0  0  0  0  0  0  0
   20.9310    0.4810  -10.4490 C   0  0  0  0  0  0  0  0  0  0  0  0
   21.5770   -0.5060  -11.1640 C   0  0  0  0  0  0  0  0  0  0  0  0
   20.9740   -1.7390  -11.4300 C   0  0  0  0  0  0  0  0  0  0  0  0
   19.7070   -1.9960  -10.8990 C   0  0  0  0  0  0  0  0  0  0  0  0
   19.0800   -3.1860  -11.0780 F   0  0  0  0  0  0  0  0  0  0  0  0
   19.0800   -1.0060  -10.1670 C   0  0  0  0  0  0  0  0  0  0  0  0
   22.7890   -0.1240  -11.6490 O   0  0  0  0  0  0  0  0  0  0  0  0
   23.8520   -0.2850  -10.8040 C   0  0  0  0  0  0  0  0  0  0  0  0
   25.0140    0.1030  -11.3920 C   0  0  0  0  0  0  0  0  0  0  0  0
   25.2150    0.6460  -12.7980 C   0  0  0  0  0  0  0  0  0  0  0  0
   26.7090    0.3960  -12.9980 C   0  0  0  0  0  0  0  0  0  0  0  0
   27.1860    1.2990  -13.8460 F   0  0  0  0  0  0  0  0  0  0  0  0
   26.8660   -0.7880  -13.5470 F   0  0  0  0  0  0  0  0  0  0  0  0
   26.1910   -0.0630  -10.6900 C   0  0  0  0  0  0  0  0  0  0  0  0
   27.3040    0.3940  -11.5650 C   0  0  0  0  0  0  0  0  0  0  0  0
   27.6340    1.7260  -11.1860 O   0  0  0  0  0  0  0  0  0  0  0  0
   26.1720   -0.5850   -9.3900 C   0  0  0  0  0  0  0  0  0  0  0  0
   27.5880   -0.7470   -8.5480 S   0  0  0  0  0  0  0  0  0  0  0  0
   27.9060    0.8240   -8.2260 C   0  0  0  0  0  0  0  0  0  0  0  0
   27.2230   -1.5850   -7.4420 O   0  0  0  0  0  0  0  0  0  0  0  0
   28.4630   -1.3900   -9.4780 O   0  0  0  0  0  0  0  0  0  0  0  0
   24.9940   -0.9350   -8.7570 C   0  0  0  0  0  0  0  0  0  0  0  0
   23.7690   -0.7790   -9.5060 C   0  0  0  0  0  0  0  0  0  0  0  0
   21.4106    1.4578  -10.2884 H   0  0  0  0  0  0  0  0  0  0  0  0
   21.4871   -2.4926  -12.0456 H   0  0  0  0  0  0  0  0  0  0  0  0
   18.0795   -1.2058   -9.7558 H   0  0  0  0  0  0  0  0  0  0  0  0
   24.9738    1.7177  -12.8552 H   0  0  0  0  0  0  0  0  0  0  0  0
   24.5720    0.1804  -13.5595 H   0  0  0  0  0  0  0  0  0  0  0  0
   28.2034   -0.2355  -11.4959 H   0  0  0  0  0  0  0  0  0  0  0  0
   27.6507    1.7936  -10.1984 H   0  0  0  0  0  0  0  0  0  0  0  0
   27.9368    0.9761   -7.1370 H   0  0  0  0  0  0  0  0  0  0  0  0
   28.8779    1.0983   -8.6622 H   0  0  0  0  0  0  0  0  0  0  0  0
   27.1173    1.4546   -8.6622 H   0  0  0  0  0  0  0  0  0  0  0  0
   24.9898   -1.3166   -7.7253 H   0  0  0  0  0  0  0  0  0  0  0  0
   22.7976   -1.0433   -9.0627 H   0  0  0  0  0  0  0  0  0  0  0  0
 15 14  1  0
 16 14  1  0
 14 13  1  0
 14 18  1  0
 13 12  1  0
 10  5  1  0
 10 11  1  0
 18 19  1  0
 18 17  1  0
  6  5  2  0
  6  7  1  0
 12 11  1  0
 12 17  2  0
  5  4  1  0
  8  7  1  0
  7  9  2  0
 11 26  2  0
 17 20  1  0
  4  3  2  0
  9  3  1  0
  3  2  1  0
 26 25  1  0
 24 21  2  0
 20 25  2  0
 20 21  1  0
  2  1  3  0
 21 22  1  0
 21 23  2  0
  4 27  1  0
  6 28  1  0
  9 29  1  0
 13 30  1  0
 13 31  1  0
 18 32  1  0
 19 33  1  0
 22 34  1  0
 22 35  1  0
 22 36  1  0
 25 37  1  0
 26 38  1  0
A    1
N1
A    2
C17
A    3
C6
A    4
C7
A    5
C8
A    6
C9
A    7
C10
A    8
F1
A    9
C5
A   10
O1
A   11
C1
A   12
C14
A   13
C15
A   14
C11
A   15
F3
A   16
F2
A   17
C13
A   18
C12
A   19
O4
A   20
C4
A   21
S1
A   22
C16
A   23
O3
A   24
O2
A   25
C3
A   26
C2
M  END
