5TC0_79Y_A_1100
     RDKit          3D

 48 51  0  0  0  0  0  0  0  0999 V2000
   10.5960   13.8070   18.7640 C   0  0  0  0  0  0  0  0  0  0  0  0
   10.3390   13.6460   17.2600 C   0  0  0  0  0  0  0  0  0  0  0  0
   14.1910   13.2310   15.6090 C   0  0  0  0  0  0  0  0  0  0  0  0
   15.4850   15.1390   14.6730 C   0  0  0  0  0  0  0  0  0  0  0  0
   16.4420   16.0590   14.0230 C   0  0  0  0  0  0  0  0  0  0  0  0
   18.2780   17.7560   12.7840 C   0  0  0  0  0  0  0  0  0  0  0  0
   17.4220   18.2460   13.7740 C   0  0  0  0  0  0  0  0  0  0  0  0
   16.4810   17.4140   14.4060 C   0  0  0  0  0  0  0  0  0  0  0  0
   15.6210   18.9590   16.1640 C   0  0  0  0  0  0  0  0  0  0  0  0
   14.6590   19.1070   17.2580 C   0  0  0  0  0  0  0  0  0  0  0  0
   13.0380   18.7190   18.6290 C   0  0  0  0  0  0  0  0  0  0  0  0
   13.1160   13.9660   21.3170 C   0  0  0  0  0  0  0  0  0  0  0  0
   11.9990   15.2030   20.6230 S   0  0  0  0  0  0  0  0  0  0  0  0
   10.7320   15.1500   21.2660 O   0  0  0  0  0  0  0  0  0  0  0  0
   12.7220   16.4210   20.5450 O   0  0  0  0  0  0  0  0  0  0  0  0
   11.7980   14.6180   19.0800 N   0  0  0  0  0  0  0  0  0  0  0  0
   11.5820   13.5440   16.5420 O   0  0  0  0  0  0  0  0  0  0  0  0
   12.4460   14.6840   16.6280 C   0  0  0  0  0  0  0  0  0  0  0  0
   12.8670   14.8930   18.0860 C   0  0  0  0  0  0  0  0  0  0  0  0
   13.7050   14.4560   15.8340 C   0  0  0  0  0  0  0  0  0  0  0  0
   15.6860   13.3980   14.6780 S   0  0  0  0  0  0  0  0  0  0  0  0
   14.4020   15.4540   15.3370 N   0  0  0  0  0  0  0  0  0  0  0  0
   17.3090   15.5700   13.0270 C   0  0  0  0  0  0  0  0  0  0  0  0
   18.2190   16.4130   12.4130 C   0  0  0  0  0  0  0  0  0  0  0  0
   15.6120   17.8110   15.4440 N   0  0  0  0  0  0  0  0  0  0  0  0
   16.3800   19.8810   15.9520 O   0  0  0  0  0  0  0  0  0  0  0  0
   13.6890   18.2660   17.5570 N   0  0  0  0  0  0  0  0  0  0  0  0
   13.6210   19.8800   19.0260 C   0  0  0  0  0  0  0  0  0  0  0  0
   14.6590   20.1250   18.1760 N   0  0  0  0  0  0  0  0  0  0  0  0
    9.7195   14.2944   19.2159 H   0  0  0  0  0  0  0  0  0  0  0  0
   10.7717   12.7998   19.1699 H   0  0  0  0  0  0  0  0  0  0  0  0
    9.7802   14.5196   16.8931 H   0  0  0  0  0  0  0  0  0  0  0  0
    9.7581   12.7265   17.0959 H   0  0  0  0  0  0  0  0  0  0  0  0
   13.7403   12.2851   15.9440 H   0  0  0  0  0  0  0  0  0  0  0  0
   18.9985   18.4298   12.2973 H   0  0  0  0  0  0  0  0  0  0  0  0
   17.4857   19.3049   14.0650 H   0  0  0  0  0  0  0  0  0  0  0  0
   12.1754   18.2348   19.1101 H   0  0  0  0  0  0  0  0  0  0  0  0
   13.0757   14.0107   22.4154 H   0  0  0  0  0  0  0  0  0  0  0  0
   12.8099   12.9649   20.9792 H   0  0  0  0  0  0  0  0  0  0  0  0
   14.1430   14.1688   20.9792 H   0  0  0  0  0  0  0  0  0  0  0  0
   11.9001   15.5550   16.2363 H   0  0  0  0  0  0  0  0  0  0  0  0
   13.7143   14.2244   18.2984 H   0  0  0  0  0  0  0  0  0  0  0  0
   13.1239   15.9577   18.1885 H   0  0  0  0  0  0  0  0  0  0  0  0
   17.2627   14.5105   12.7348 H   0  0  0  0  0  0  0  0  0  0  0  0
   18.8932   16.0250   11.6352 H   0  0  0  0  0  0  0  0  0  0  0  0
   14.8713   17.1379   15.6873 H   0  0  0  0  0  0  0  0  0  0  0  0
   13.4695   17.3994   17.0455 H   0  0  0  0  0  0  0  0  0  0  0  0
   13.3128   20.5066   19.8759 H   0  0  0  0  0  0  0  0  0  0  0  0
 24  6  2  0
 24 23  1  0
  6  7  1  0
 23  5  2  0
  7  8  2  0
  5  8  1  0
  5  4  1  0
  8 25  1  0
  4 21  1  0
  4 22  2  0
 21  3  1  0
 22 20  1  0
 25  9  1  0
  3 20  2  0
 20 18  1  0
 26  9  2  0
  9 10  1  0
 17 18  1  0
 17  2  1  0
 18 19  1  0
 10 27  1  0
 10 29  2  0
  2  1  1  0
 27 11  1  0
 19 16  1  0
 29 28  1  0
 11 28  2  0
  1 16  1  0
 16 13  1  0
 15 13  2  0
 13 14  2  0
 13 12  1  0
  1 30  1  0
  1 31  1  0
  2 32  1  0
  2 33  1  0
  3 34  1  0
  6 35  1  0
  7 36  1  0
 11 37  1  0
 12 38  1  0
 12 39  1  0
 12 40  1  0
 18 41  1  0
 19 42  1  0
 19 43  1  0
 23 44  1  0
 24 45  1  0
 25 46  1  0
 27 47  1  0
 28 48  1  0
A    1
C6
A    2
C7
A    3
C13
A    4
C15
A    5
C17
A    6
C20
A    7
C21
A    8
C22
A    9
C24
A   10
C26
A   11
C28
A   12
C1
A   13
S2
A   14
O3
A   15
O4
A   16
N5
A   17
O8
A   18
C9
A   19
C11
A   20
C12
A   21
S14
A   22
N16
A   23
C18
A   24
C19
A   25
N23
A   26
O25
A   27
N27
A   28
C29
A   29
N30
M  END
