5TEL_7AJ_A_402
     RDKit          3D

 60 64  0  0  0  0  0  0  0  0999 V2000
  -23.8940  -32.2780  -15.7680 C   0  0  0  0  0  0  0  0  0  0  0  0
  -24.0160  -31.3240  -16.9480 C   0  0  0  0  0  0  0  0  0  0  0  0
  -22.7310  -30.6560  -17.1890 N   0  0  0  0  0  0  0  0  0  0  0  0
  -22.9070  -29.7240  -18.3160 C   0  0  0  0  0  0  0  0  0  0  0  0
  -22.3730  -29.8930  -15.9790 C   0  0  0  0  0  0  0  0  0  0  0  0
  -22.2400  -30.8410  -14.7930 C   0  0  0  0  0  0  0  0  0  0  0  0
  -23.5230  -31.5280  -14.5530 N   0  0  0  0  0  0  0  0  0  0  0  0
  -23.4180  -32.4520  -13.4130 C   0  0  0  0  0  0  0  0  0  0  0  0
  -22.2890  -33.4870  -13.5100 C   0  0  0  0  0  0  0  0  0  0  0  0
  -22.4390  -34.3780  -12.3420 N   0  0  0  0  0  0  0  0  0  0  0  0
  -22.4040  -34.1990  -11.0240 C   0  0  0  0  0  0  0  0  0  0  0  0
  -22.7350  -35.6460  -12.5940 C   0  0  0  0  0  0  0  0  0  0  0  0
  -22.8690  -36.2540  -13.7720 C   0  0  0  0  0  0  0  0  0  0  0  0
  -23.1790  -37.6020  -13.8100 C   0  0  0  0  0  0  0  0  0  0  0  0
  -23.3240  -38.3240  -14.9570 O   0  0  0  0  0  0  0  0  0  0  0  0
  -23.1230  -37.5150  -16.1190 C   0  0  0  0  0  0  0  0  0  0  0  0
  -23.3150  -38.2870  -12.6180 C   0  0  0  0  0  0  0  0  0  0  0  0
  -23.6060  -39.6150  -12.7180 O   0  0  0  0  0  0  0  0  0  0  0  0
  -23.7310  -40.2370  -11.4380 C   0  0  0  0  0  0  0  0  0  0  0  0
  -23.1560  -37.6010  -11.4180 C   0  0  0  0  0  0  0  0  0  0  0  0
  -22.8710  -36.2940  -11.4290 C   0  0  0  0  0  0  0  0  0  0  0  0
  -22.6580  -35.3840  -10.4680 C   0  0  0  0  0  0  0  0  0  0  0  0
  -22.7060  -35.5500   -9.1370 C   0  0  0  0  0  0  0  0  0  0  0  0
  -23.0490  -36.6410   -8.4520 C   0  0  0  0  0  0  0  0  0  0  0  0
  -23.0010  -36.3310   -7.1520 C   0  0  0  0  0  0  0  0  0  0  0  0
  -23.2340  -37.0580   -6.0540 C   0  0  0  0  0  0  0  0  0  0  0  0
  -23.6910  -38.7220   -6.1730 Cl  0  0  0  0  0  0  0  0  0  0  0  0
  -23.1220  -36.4920   -4.7900 C   0  0  0  0  0  0  0  0  0  0  0  0
  -22.7560  -35.1630   -4.6820 C   0  0  0  0  0  0  0  0  0  0  0  0
  -22.5240  -34.4480   -5.8560 N   0  0  0  0  0  0  0  0  0  0  0  0
  -22.6500  -35.0430   -7.0530 C   0  0  0  0  0  0  0  0  0  0  0  0
  -22.4830  -34.5600   -8.2830 N   0  0  0  0  0  0  0  0  0  0  0  0
  -24.8580  -32.7823  -15.6054 H   0  0  0  0  0  0  0  0  0  0  0  0
  -23.1159  -33.0248  -15.9847 H   0  0  0  0  0  0  0  0  0  0  0  0
  -24.7838  -30.5679  -16.7272 H   0  0  0  0  0  0  0  0  0  0  0  0
  -24.3004  -31.8938  -17.8449 H   0  0  0  0  0  0  0  0  0  0  0  0
  -23.0981  -28.7123  -17.9287 H   0  0  0  0  0  0  0  0  0  0  0  0
  -21.9946  -29.7152  -18.9304 H   0  0  0  0  0  0  0  0  0  0  0  0
  -23.7597  -30.0485  -18.9304 H   0  0  0  0  0  0  0  0  0  0  0  0
  -21.4159  -29.3761  -16.1428 H   0  0  0  0  0  0  0  0  0  0  0  0
  -23.1608  -29.1548  -15.7681 H   0  0  0  0  0  0  0  0  0  0  0  0
  -21.4613  -31.5875  -15.0083 H   0  0  0  0  0  0  0  0  0  0  0  0
  -21.9650  -30.2643  -13.8976 H   0  0  0  0  0  0  0  0  0  0  0  0
  -23.2536  -31.8538  -12.5046 H   0  0  0  0  0  0  0  0  0  0  0  0
  -24.3564  -33.0257  -13.3988 H   0  0  0  0  0  0  0  0  0  0  0  0
  -22.3803  -34.0634  -14.4424 H   0  0  0  0  0  0  0  0  0  0  0  0
  -21.3021  -33.0012  -13.5170 H   0  0  0  0  0  0  0  0  0  0  0  0
  -22.2041  -33.2554  -10.4951 H   0  0  0  0  0  0  0  0  0  0  0  0
  -22.7343  -35.6892  -14.7063 H   0  0  0  0  0  0  0  0  0  0  0  0
  -22.8683  -36.4898  -15.8124 H   0  0  0  0  0  0  0  0  0  0  0  0
  -22.3014  -37.9330  -16.7192 H   0  0  0  0  0  0  0  0  0  0  0  0
  -24.0447  -37.4999  -16.7192 H   0  0  0  0  0  0  0  0  0  0  0  0
  -23.5800  -39.4856  -10.6489 H   0  0  0  0  0  0  0  0  0  0  0  0
  -24.7352  -40.6752  -11.3398 H   0  0  0  0  0  0  0  0  0  0  0  0
  -22.9741  -41.0291  -11.3398 H   0  0  0  0  0  0  0  0  0  0  0  0
  -23.2645  -38.1328  -10.4612 H   0  0  0  0  0  0  0  0  0  0  0  0
  -23.3217  -37.6177   -8.8782 H   0  0  0  0  0  0  0  0  0  0  0  0
  -23.3213  -37.0916   -3.8896 H   0  0  0  0  0  0  0  0  0  0  0  0
  -22.6509  -34.6835   -3.6976 H   0  0  0  0  0  0  0  0  0  0  0  0
  -22.2270  -33.5926   -8.5269 H   0  0  0  0  0  0  0  0  0  0  0  0
  4  3  1  0
  3  2  1  0
  3  5  1  0
  2  1  1  0
 16 15  1  0
  5  6  1  0
  1  7  1  0
 15 14  1  0
  6  7  1  0
  7  8  1  0
 14 13  1  0
 14 17  2  0
 13 12  2  0
  9  8  1  0
  9 10  1  0
 18 17  1  0
 18 19  1  0
 17 20  1  0
 12 10  1  0
 12 21  1  0
 10 11  1  0
 21 20  2  0
 21 22  1  0
 11 22  2  0
 22 23  1  0
 23 24  2  0
 23 32  1  0
 24 25  1  0
 32 31  1  0
 25 31  2  0
 25 26  1  0
 31 30  1  0
 27 26  1  0
 26 28  2  0
 30 29  2  0
 28 29  1  0
  1 33  1  0
  1 34  1  0
  2 35  1  0
  2 36  1  0
  4 37  1  0
  4 38  1  0
  4 39  1  0
  5 40  1  0
  5 41  1  0
  6 42  1  0
  6 43  1  0
  8 44  1  0
  8 45  1  0
  9 46  1  0
  9 47  1  0
 11 48  1  0
 13 49  1  0
 16 50  1  0
 16 51  1  0
 16 52  1  0
 19 53  1  0
 19 54  1  0
 19 55  1  0
 20 56  1  0
 24 57  1  0
 28 58  1  0
 29 59  1  0
 32 60  1  0
A    1
CBA
A    2
CBB
A    3
NBC
A    4
CBF
A    5
CBD
A    6
CBE
A    7
NAZ
A    8
CAY
A    9
CAX
A   10
NAM
A   11
CAL
A   12
CAO
A   13
CAP
A   14
CAQ
A   15
OAU
A   16
CAV
A   17
CAR
A   18
OAT
A   19
CAW
A   20
CAS
A   21
CAN
A   22
CAK
A   23
CAH
A   24
CAI
A   25
CAE
A   26
CAD
A   27
CLJ
A   28
CAA
A   29
CAB
A   30
NAC
A   31
CAF
A   32
NAG
M  END
