5TEJ_7FN_B_302
     RDKit          3D

 15 15  0  0  0  0  0  0  0  0999 V2000
   -2.5070    2.5740   26.1580 O   0  0  0  0  0  0  0  0  0  0  0  0
   -2.5660    3.2160   25.0930 C   0  0  0  0  0  0  0  0  0  0  0  0
   -3.2150    2.7260   24.1520 O   0  0  0  0  0  0  0  0  0  0  0  0
   -1.9020    4.3690   24.9030 C   0  0  0  0  0  0  0  0  0  0  0  0
   -1.7470    4.8720   23.7200 O   0  0  0  0  0  0  0  0  0  0  0  0
   -1.0680    5.9780   23.8040 C   0  0  0  0  0  0  0  0  0  0  0  0
   -0.7530    6.6960   22.7110 C   0  0  0  0  0  0  0  0  0  0  0  0
    0.1400    7.5760   22.7250 O   0  0  0  0  0  0  0  0  0  0  0  0
   -1.3130    6.4200   21.6240 O   0  0  0  0  0  0  0  0  0  0  0  0
   -0.7730    6.1970   25.0900 C   0  0  0  0  0  0  0  0  0  0  0  0
   -1.2960    5.1730   25.7850 C   0  0  0  0  0  0  0  0  0  0  0  0
   -2.5507    3.0491   27.0255 H   0  0  0  0  0  0  0  0  0  0  0  0
    0.4857    7.9167   23.5878 H   0  0  0  0  0  0  0  0  0  0  0  0
   -0.2114    7.0497   25.4991 H   0  0  0  0  0  0  0  0  0  0  0  0
   -1.2373    5.0236   26.8732 H   0  0  0  0  0  0  0  0  0  0  0  0
  9  7  2  0
  7  8  1  0
  7  6  1  0
  5  6  1  0
  5  4  1  0
  6 10  2  0
  3  2  2  0
  4  2  1  0
  4 11  2  0
 10 11  1  0
  2  1  1  0
  1 12  1  0
  8 13  1  0
 10 14  1  0
 11 15  1  0
A    1
OAH
A    2
CAF
A    3
OAI
A    4
CAA
A    5
OAE
A    6
CAD
A    7
CAG
A    8
OAK
A    9
OAJ
A   10
CAC
A   11
CAB
M  END
