5TF5_7AR_B_501
     RDKit          3D

 35 37  0  0  0  0  0  0  0  0999 V2000
   60.0610   -2.5130   25.1480 C   0  0  0  0  0  0  0  0  0  0  0  0
   61.8150   -1.8400   30.2910 N   0  0  0  0  0  0  0  0  0  0  0  0
   60.9750   -0.9530   30.7650 C   0  0  0  0  0  0  0  0  0  0  0  0
   60.4290   -1.4440   31.9570 C   0  0  0  0  0  0  0  0  0  0  0  0
   60.6440   -3.4270   33.2920 C   0  0  0  0  0  0  0  0  0  0  0  0
   59.1470   -1.6720   33.9840 C   0  0  0  0  0  0  0  0  0  0  0  0
   59.4970   -0.9260   32.8670 C   0  0  0  0  0  0  0  0  0  0  0  0
   64.4800   -0.1310   29.0820 O   0  0  0  0  0  0  0  0  0  0  0  0
   64.0180   -1.2640   29.3920 C   0  0  0  0  0  0  0  0  0  0  0  0
   64.7510   -2.1260   29.9590 O   0  0  0  0  0  0  0  0  0  0  0  0
   62.5590   -1.5800   29.0720 C   0  0  0  0  0  0  0  0  0  0  0  0
   62.4850   -2.6760   28.0370 C   0  0  0  0  0  0  0  0  0  0  0  0
   61.2840   -2.3390   27.1830 C   0  0  0  0  0  0  0  0  0  0  0  0
   60.2680   -1.6020   27.7550 C   0  0  0  0  0  0  0  0  0  0  0  0
   59.1540   -1.3040   27.0080 C   0  0  0  0  0  0  0  0  0  0  0  0
   59.0460   -1.7580   25.7050 C   0  0  0  0  0  0  0  0  0  0  0  0
   61.1850   -2.8000   25.8870 C   0  0  0  0  0  0  0  0  0  0  0  0
   60.6870    0.2710   30.1520 O   0  0  0  0  0  0  0  0  0  0  0  0
   61.0030   -2.6830   32.1580 C   0  0  0  0  0  0  0  0  0  0  0  0
   59.7170   -2.9220   34.1990 C   0  0  0  0  0  0  0  0  0  0  0  0
   59.2360   -3.8450   35.6540 Cl  0  0  0  0  0  0  0  0  0  0  0  0
   57.9680   -1.0350   35.1620 Cl  0  0  0  0  0  0  0  0  0  0  0  0
   61.8840   -2.9010   31.0760 C   0  0  0  0  0  0  0  0  0  0  0  0
   62.6750   -4.0330   30.8550 O   0  0  0  0  0  0  0  0  0  0  0  0
   59.9701   -2.8834   24.1162 H   0  0  0  0  0  0  0  0  0  0  0  0
   61.0974   -4.4142   33.4651 H   0  0  0  0  0  0  0  0  0  0  0  0
   59.0469    0.0632   32.6973 H   0  0  0  0  0  0  0  0  0  0  0  0
   64.7889   -2.1705   30.9473 H   0  0  0  0  0  0  0  0  0  0  0  0
   62.0667   -0.7075   28.6177 H   0  0  0  0  0  0  0  0  0  0  0  0
   62.3509   -3.6546   28.5212 H   0  0  0  0  0  0  0  0  0  0  0  0
   63.4071   -2.7393   27.4406 H   0  0  0  0  0  0  0  0  0  0  0  0
   60.3486   -1.2571   28.7964 H   0  0  0  0  0  0  0  0  0  0  0  0
   58.3448   -0.7022   27.4473 H   0  0  0  0  0  0  0  0  0  0  0  0
   58.1513   -1.5177   25.1119 H   0  0  0  0  0  0  0  0  0  0  0  0
   61.9999   -3.3936   25.4470 H   0  0  0  0  0  0  0  0  0  0  0  0
  1 16  2  0
  1 17  1  0
 16 15  1  0
 17 13  2  0
 15 14  2  0
 13 14  1  0
 13 12  1  0
 12 11  1  0
 11  9  1  0
 11  2  1  0
  8  9  2  0
  9 10  1  0
 18  3  2  0
  2  3  1  0
  2 23  1  0
  3  4  1  0
 24 23  2  0
 23 19  1  0
  4 19  2  0
  4  7  1  0
 19  5  1  0
  7  6  2  0
  5 20  2  0
  6 20  1  0
  6 22  1  0
 20 21  1  0
  1 25  1  0
  5 26  1  0
  7 27  1  0
 10 28  1  0
 11 29  1  0
 12 30  1  0
 12 31  1  0
 14 32  1  0
 15 33  1  0
 16 34  1  0
 17 35  1  0
A    1
C10
A    2
N12
A    3
C13
A    4
C15
A    5
C17
A    6
C20
A    7
C21
A    8
O01
A    9
C02
A   10
O03
A   11
C04
A   12
C05
A   13
C06
A   14
C07
A   15
C08
A   16
C09
A   17
C11
A   18
O14
A   19
C16
A   20
C18
A   21
CL1
A   22
CL2
A   23
C23
A   24
O24
M  END
