1T67_B3N_A_381
     RDKit          3D

 47 47  0  0  0  0  0  0  0  0999 V2000
   51.9990   -3.7700   32.7800 O   0  0  0  0  0  0  0  0  0  0  0  0
   50.9020   -4.1260   33.1930 C   0  0  0  0  0  0  0  0  0  0  0  0
   50.2260   -3.2960   34.2600 C   0  0  0  0  0  0  0  0  0  0  0  0
   48.8750   -3.4710   34.5590 C   0  0  0  0  0  0  0  0  0  0  0  0
   48.2710   -2.6920   35.5590 C   0  0  0  0  0  0  0  0  0  0  0  0
   49.0060   -1.7360   36.2750 C   0  0  0  0  0  0  0  0  0  0  0  0
   48.4050   -0.9420   37.2730 N   0  0  0  0  0  0  0  0  0  0  0  0
   46.9880   -1.0320   37.5950 C   0  0  0  0  0  0  0  0  0  0  0  0
   49.2070    0.0360   37.9940 C   0  0  0  0  0  0  0  0  0  0  0  0
   50.3650   -1.5620   35.9720 C   0  0  0  0  0  0  0  0  0  0  0  0
   50.9690   -2.3440   34.9760 C   0  0  0  0  0  0  0  0  0  0  0  0
   50.3070   -5.2320   32.7430 N   0  0  0  0  0  0  0  0  0  0  0  0
   50.8830   -6.1430   31.7650 C   0  0  0  0  0  0  0  0  0  0  0  0
   50.4130   -5.8850   30.3300 C   0  0  0  0  0  0  0  0  0  0  0  0
   51.2480   -4.7800   29.6760 C   0  0  0  0  0  0  0  0  0  0  0  0
   50.8180   -4.5190   28.2310 C   0  0  0  0  0  0  0  0  0  0  0  0
   50.2150   -3.1390   28.0250 C   0  0  0  0  0  0  0  0  0  0  0  0
   49.7050   -2.9730   26.5960 C   0  0  0  0  0  0  0  0  0  0  0  0
   50.7510   -2.2360   25.7790 C   0  0  0  0  0  0  0  0  0  0  0  0
   51.1280   -1.1130   26.0750 O   0  0  0  0  0  0  0  0  0  0  0  0
   51.2440   -2.8670   24.7240 N   0  0  0  0  0  0  0  0  0  0  0  0
   52.2220   -2.4130   24.1260 O   0  0  0  0  0  0  0  0  0  0  0  0
   48.2828   -4.2191   34.0116 H   0  0  0  0  0  0  0  0  0  0  0  0
   47.2038   -2.8339   35.7845 H   0  0  0  0  0  0  0  0  0  0  0  0
   46.8600   -1.0401   38.6875 H   0  0  0  0  0  0  0  0  0  0  0  0
   46.4597   -0.1656   37.1704 H   0  0  0  0  0  0  0  0  0  0  0  0
   46.5736   -1.9583   37.1704 H   0  0  0  0  0  0  0  0  0  0  0  0
   49.0833   -0.1148   39.0766 H   0  0  0  0  0  0  0  0  0  0  0  0
   50.2663   -0.0886   37.7251 H   0  0  0  0  0  0  0  0  0  0  0  0
   48.8773    1.0504   37.7251 H   0  0  0  0  0  0  0  0  0  0  0  0
   50.9575   -0.8116   36.5160 H   0  0  0  0  0  0  0  0  0  0  0  0
   52.0378   -2.2096   34.7534 H   0  0  0  0  0  0  0  0  0  0  0  0
   49.3731   -5.4573   33.1143 H   0  0  0  0  0  0  0  0  0  0  0  0
   51.9776   -6.0385   31.7958 H   0  0  0  0  0  0  0  0  0  0  0  0
   50.5498   -7.1560   32.0347 H   0  0  0  0  0  0  0  0  0  0  0  0
   50.5169   -6.8103   29.7444 H   0  0  0  0  0  0  0  0  0  0  0  0
   49.3610   -5.5647   30.3552 H   0  0  0  0  0  0  0  0  0  0  0  0
   51.1275   -3.8530   30.2558 H   0  0  0  0  0  0  0  0  0  0  0  0
   52.2980   -5.1075   29.6652 H   0  0  0  0  0  0  0  0  0  0  0  0
   51.7002   -4.6155   27.5810 H   0  0  0  0  0  0  0  0  0  0  0  0
   50.0395   -5.2558   27.9837 H   0  0  0  0  0  0  0  0  0  0  0  0
   49.3764   -3.0048   28.7241 H   0  0  0  0  0  0  0  0  0  0  0  0
   50.9944   -2.3848   28.2089 H   0  0  0  0  0  0  0  0  0  0  0  0
   49.5214   -3.9629   26.1529 H   0  0  0  0  0  0  0  0  0  0  0  0
   48.7664   -2.3994   26.6012 H   0  0  0  0  0  0  0  0  0  0  0  0
   50.8077   -3.7424   24.4011 H   0  0  0  0  0  0  0  0  0  0  0  0
   52.8944   -2.1009   24.7822 H   0  0  0  0  0  0  0  0  0  0  0  0
  1  2  2  0
  2  3  1  0
  2 12  1  0
  3  4  2  0
  3 11  1  0
  4  5  1  0
  5  6  2  0
  6  7  1  0
  6 10  1  0
  7  8  1  0
  7  9  1  0
 10 11  2  0
 12 13  1  0
 13 14  1  0
 14 15  1  0
 15 16  1  0
 16 17  1  0
 17 18  1  0
 18 19  1  0
 19 20  2  0
 19 21  1  0
 21 22  1  0
  4 23  1  0
  5 24  1  0
  8 25  1  0
  8 26  1  0
  8 27  1  0
  9 28  1  0
  9 29  1  0
  9 30  1  0
 10 31  1  0
 11 32  1  0
 12 33  1  0
 13 34  1  0
 13 35  1  0
 14 36  1  0
 14 37  1  0
 15 38  1  0
 15 39  1  0
 16 40  1  0
 16 41  1  0
 17 42  1  0
 17 43  1  0
 18 44  1  0
 18 45  1  0
 21 46  1  0
 22 47  1  0
A    1
O23
A    2
C13
A    3
C14
A    4
C15
A    5
C16
A    6
C17
A    7
N20
A    8
C22
A    9
C21
A   10
C18
A   11
C19
A   12
N12
A   13
C10
A   14
C9
A   15
C8
A   16
C7
A   17
C6
A   18
C5
A   19
C1
A   20
O2
A   21
N3
A   22
O4
M  END
