5TI3_7CG_A_205
     RDKit          3D

 38 40  0  0  0  0  0  0  0  0999 V2000
   45.8200   37.6500   74.6640 C   0  0  0  0  0  0  0  0  0  0  0  0
   48.7260   36.6150   77.4700 C   0  0  0  0  0  0  0  0  0  0  0  0
   48.6830   39.8910   80.2280 C   0  0  0  0  0  0  0  0  0  0  0  0
   50.9510   37.3140   76.8180 C   0  0  0  0  0  0  0  0  0  0  0  0
   50.9690   36.3070   75.8350 C   0  0  0  0  0  0  0  0  0  0  0  0
   45.7410   36.3900   77.3030 O   0  0  0  0  0  0  0  0  0  0  0  0
   46.1010   35.3850   76.0920 S   0  0  0  0  0  0  0  0  0  0  0  0
   46.2020   36.3140   74.5840 C   0  0  0  0  0  0  0  0  0  0  0  0
   46.6630   35.8320   73.3250 C   0  0  0  0  0  0  0  0  0  0  0  0
   47.2330   34.0940   73.0340 Br  0  0  0  0  0  0  0  0  0  0  0  0
   46.7160   36.6480   72.1780 C   0  0  0  0  0  0  0  0  0  0  0  0
   46.3060   37.9740   72.2730 C   0  0  0  0  0  0  0  0  0  0  0  0
   45.8680   38.4310   73.5190 C   0  0  0  0  0  0  0  0  0  0  0  0
   45.3160   40.1510   73.7150 Br  0  0  0  0  0  0  0  0  0  0  0  0
   47.6780   34.7410   76.3270 N   0  0  0  0  0  0  0  0  0  0  0  0
   48.7290   35.5870   76.5100 C   0  0  0  0  0  0  0  0  0  0  0  0
   49.8120   37.4850   77.6490 C   0  0  0  0  0  0  0  0  0  0  0  0
   49.7000   38.4430   78.6320 N   0  0  0  0  0  0  0  0  0  0  0  0
   48.4820   38.6220   79.3700 C   0  0  0  0  0  0  0  0  0  0  0  0
   50.1980   40.1790   80.1470 C   0  0  0  0  0  0  0  0  0  0  0  0
   50.6610   39.2990   79.0600 C   0  0  0  0  0  0  0  0  0  0  0  0
   51.8280   39.3740   78.6190 O   0  0  0  0  0  0  0  0  0  0  0  0
   49.8530   35.4470   75.6810 C   0  0  0  0  0  0  0  0  0  0  0  0
   45.0340   34.1860   76.0080 O   0  0  0  0  0  0  0  0  0  0  0  0
   45.4855   38.0794   75.6199 H   0  0  0  0  0  0  0  0  0  0  0  0
   47.8371   36.7418   78.1055 H   0  0  0  0  0  0  0  0  0  0  0  0
   48.1051   40.7325   79.8182 H   0  0  0  0  0  0  0  0  0  0  0  0
   48.3390   39.7535   81.2637 H   0  0  0  0  0  0  0  0  0  0  0  0
   51.8235   37.9720   76.9433 H   0  0  0  0  0  0  0  0  0  0  0  0
   51.8492   36.1874   75.1862 H   0  0  0  0  0  0  0  0  0  0  0  0
   47.0764   36.2426   71.2210 H   0  0  0  0  0  0  0  0  0  0  0  0
   46.3259   38.6398   71.3976 H   0  0  0  0  0  0  0  0  0  0  0  0
   47.8266   33.7218   76.3293 H   0  0  0  0  0  0  0  0  0  0  0  0
   48.2950   37.7508   80.0150 H   0  0  0  0  0  0  0  0  0  0  0  0
   47.6167   38.7240   78.6985 H   0  0  0  0  0  0  0  0  0  0  0  0
   50.3844   41.2354   79.9033 H   0  0  0  0  0  0  0  0  0  0  0  0
   50.7194   39.9940   81.0978 H   0  0  0  0  0  0  0  0  0  0  0  0
   49.8678   34.6652   74.9073 H   0  0  0  0  0  0  0  0  0  0  0  0
  1  8  2  0
  1 13  1  0
  2 16  2  0
  2 17  1  0
  3 19  1  0
  3 20  1  0
  4  5  1  0
  4 17  2  0
  5 23  2  0
  6  7  2  0
  7  8  1  0
  7 15  1  0
  7 24  2  0
  8  9  1  0
  9 10  1  0
  9 11  2  0
 11 12  1  0
 12 13  2  0
 13 14  1  0
 15 16  1  0
 16 23  1  0
 17 18  1  0
 18 19  1  0
 18 21  1  0
 20 21  1  0
 21 22  2  0
  1 25  1  0
  2 26  1  0
  3 27  1  0
  3 28  1  0
  4 29  1  0
  5 30  1  0
 11 31  1  0
 12 32  1  0
 15 33  1  0
 19 34  1  0
 19 35  1  0
 20 36  1  0
 20 37  1  0
 23 38  1  0
A    1
C10
A    2
C13
A    3
C17
A    4
C21
A    5
C22
A    6
O01
A    7
S02
A    8
C03
A    9
C04
A   10
BR1
A   11
C06
A   12
C07
A   13
C08
A   14
BR2
A   15
N11
A   16
C12
A   17
C14
A   18
N15
A   19
C16
A   20
C18
A   21
C19
A   22
O20
A   23
C23
A   24
O24
M  END
