5TKS_7DL_A_301
     RDKit          3D

 72 76  0  0  0  0  0  0  0  0999 V2000
   39.0820  -18.6870   29.4150 C   0  0  0  0  0  0  0  0  0  0  0  0
   38.3140  -17.4580   29.1330 C   0  0  0  0  0  0  0  0  0  0  0  0
   39.8050  -20.8740   28.6870 C   0  0  0  0  0  0  0  0  0  0  0  0
   41.3000  -20.7650   28.6940 C   0  0  0  0  0  0  0  0  0  0  0  0
   39.3770  -21.9620   27.7020 C   0  0  0  0  0  0  0  0  0  0  0  0
   44.4600  -21.3800   30.2410 C   0  0  0  0  0  0  0  0  0  0  0  0
   45.5200  -20.4880   30.4630 C   0  0  0  0  0  0  0  0  0  0  0  0
   46.5580  -20.8230   31.3120 C   0  0  0  0  0  0  0  0  0  0  0  0
   40.0970  -23.8210   29.4000 C   0  0  0  0  0  0  0  0  0  0  0  0
   44.4570  -22.6200   30.9010 C   0  0  0  0  0  0  0  0  0  0  0  0
   40.0190  -23.3610   27.9460 C   0  0  0  0  0  0  0  0  0  0  0  0
   33.8610  -14.1230   29.6210 Cl  0  0  0  0  0  0  0  0  0  0  0  0
   44.6910  -20.4520   26.9650 Cl  0  0  0  0  0  0  0  0  0  0  0  0
   36.7620  -13.5070   26.9600 C   0  0  0  0  0  0  0  0  0  0  0  0
   35.6530  -13.3240   27.7720 C   0  0  0  0  0  0  0  0  0  0  0  0
   35.2820  -14.3310   28.6380 C   0  0  0  0  0  0  0  0  0  0  0  0
   35.9990  -15.5120   28.7260 C   0  0  0  0  0  0  0  0  0  0  0  0
   37.1050  -15.7190   27.8910 C   0  0  0  0  0  0  0  0  0  0  0  0
   37.4640  -14.7100   26.9870 C   0  0  0  0  0  0  0  0  0  0  0  0
   38.5430  -14.9130   26.0780 N   0  0  0  0  0  0  0  0  0  0  0  0
   38.5950  -15.0110   24.7420 C   0  0  0  0  0  0  0  0  0  0  0  0
   39.8340  -15.1800   24.3620 N   0  0  0  0  0  0  0  0  0  0  0  0
   40.5650  -15.2040   25.5030 N   0  0  0  0  0  0  0  0  0  0  0  0
   39.8040  -15.0420   26.5460 N   0  0  0  0  0  0  0  0  0  0  0  0
   37.8590  -16.9770   27.9880 C   0  0  0  0  0  0  0  0  0  0  0  0
   39.7130  -18.8180   30.4450 O   0  0  0  0  0  0  0  0  0  0  0  0
   39.1380  -19.6000   28.4230 N   0  0  0  0  0  0  0  0  0  0  0  0
   46.5230  -22.0220   32.0210 C   0  0  0  0  0  0  0  0  0  0  0  0
   45.4840  -22.9170   31.7900 C   0  0  0  0  0  0  0  0  0  0  0  0
   42.0430  -20.5080   27.5790 N   0  0  0  0  0  0  0  0  0  0  0  0
   43.3660  -20.6460   28.0220 C   0  0  0  0  0  0  0  0  0  0  0  0
   43.3650  -20.9810   29.3270 C   0  0  0  0  0  0  0  0  0  0  0  0
   42.0490  -21.0360   29.7520 N   0  0  0  0  0  0  0  0  0  0  0  0
   43.3660  -23.6690   30.7320 C   0  0  0  0  0  0  0  0  0  0  0  0
   40.8040  -25.1470   29.6330 C   0  0  0  0  0  0  0  0  0  0  0  0
   42.2140  -25.3090   29.0490 C   0  0  0  0  0  0  0  0  0  0  0  0
   43.2400  -24.1790   29.2880 C   0  0  0  0  0  0  0  0  0  0  0  0
   47.5160  -22.4110   32.9590 N   0  0  0  0  0  0  0  0  0  0  0  0
   48.7770  -21.9150   33.0630 C   0  0  0  0  0  0  0  0  0  0  0  0
   49.3660  -22.4080   34.1580 O   0  0  0  0  0  0  0  0  0  0  0  0
   49.3300  -21.1870   32.2680 O   0  0  0  0  0  0  0  0  0  0  0  0
   50.7440  -21.9890   34.3620 C   0  0  0  0  0  0  0  0  0  0  0  0
   38.0834  -16.8443   30.0163 H   0  0  0  0  0  0  0  0  0  0  0  0
   39.4828  -21.1607   29.6989 H   0  0  0  0  0  0  0  0  0  0  0  0
   39.6517  -21.6325   26.6891 H   0  0  0  0  0  0  0  0  0  0  0  0
   38.2935  -22.0927   27.8400 H   0  0  0  0  0  0  0  0  0  0  0  0
   45.5250  -19.5118   29.9561 H   0  0  0  0  0  0  0  0  0  0  0  0
   47.4136  -20.1415   31.4282 H   0  0  0  0  0  0  0  0  0  0  0  0
   40.6314  -23.0477   29.9713 H   0  0  0  0  0  0  0  0  0  0  0  0
   39.0568  -23.9740   29.7233 H   0  0  0  0  0  0  0  0  0  0  0  0
   39.4277  -24.1035   27.3900 H   0  0  0  0  0  0  0  0  0  0  0  0
   41.0621  -23.2698   27.6090 H   0  0  0  0  0  0  0  0  0  0  0  0
   37.0893  -12.6977   26.2907 H   0  0  0  0  0  0  0  0  0  0  0  0
   35.0769  -12.3881   27.7260 H   0  0  0  0  0  0  0  0  0  0  0  0
   35.7013  -16.2855   29.4492 H   0  0  0  0  0  0  0  0  0  0  0  0
   37.7271  -14.9573   24.0683 H   0  0  0  0  0  0  0  0  0  0  0  0
   38.0538  -17.5445   27.0660 H   0  0  0  0  0  0  0  0  0  0  0  0
   38.7208  -19.4041   27.5019 H   0  0  0  0  0  0  0  0  0  0  0  0
   45.4744  -23.8799   32.3217 H   0  0  0  0  0  0  0  0  0  0  0  0
   41.7102  -20.2688   26.6340 H   0  0  0  0  0  0  0  0  0  0  0  0
   42.4048  -23.2262   31.0322 H   0  0  0  0  0  0  0  0  0  0  0  0
   43.6372  -24.5292   31.3616 H   0  0  0  0  0  0  0  0  0  0  0  0
   40.1743  -25.9373   29.1983 H   0  0  0  0  0  0  0  0  0  0  0  0
   40.9432  -25.2033   30.7227 H   0  0  0  0  0  0  0  0  0  0  0  0
   42.1044  -25.4245   27.9606 H   0  0  0  0  0  0  0  0  0  0  0  0
   42.6323  -26.1734   29.5854 H   0  0  0  0  0  0  0  0  0  0  0  0
   44.2272  -24.5511   28.9765 H   0  0  0  0  0  0  0  0  0  0  0  0
   42.8735  -23.3214   28.7047 H   0  0  0  0  0  0  0  0  0  0  0  0
   47.2528  -23.1461   33.6308 H   0  0  0  0  0  0  0  0  0  0  0  0
   50.9522  -21.9257   35.4403 H   0  0  0  0  0  0  0  0  0  0  0  0
   51.4222  -22.7215   33.9000 H   0  0  0  0  0  0  0  0  0  0  0  0
   50.8996  -21.0029   33.9000 H   0  0  0  0  0  0  0  0  0  0  0  0
 22 21  2  0
 22 23  1  0
 21 20  1  0
 23 24  2  0
 20 24  1  0
 20 19  1  0
 14 19  2  0
 14 15  1  0
 13 31  1  0
 19 18  1  0
 30 31  1  0
 30  4  1  0
  5 11  1  0
  5  3  1  0
 15 16  2  0
 18 25  1  0
 18 17  2  0
 11  9  1  0
 25  2  2  0
 31 32  2  0
 27  3  1  0
 27  1  1  0
 16 17  1  0
 16 12  1  0
  3  4  1  0
  4 33  2  0
 36 37  1  0
 36 35  1  0
  2  1  1  0
 37 34  1  0
 32 33  1  0
 32  6  1  0
  9 35  1  0
  1 26  2  0
  6  7  1  0
  6 10  2  0
  7  8  2  0
 34 10  1  0
 10 29  1  0
  8 28  1  0
 29 28  2  0
 28 38  1  0
 41 39  2  0
 38 39  1  0
 39 40  1  0
 40 42  1  0
  2 43  1  0
  3 44  1  0
  5 45  1  0
  5 46  1  0
  7 47  1  0
  8 48  1  0
  9 49  1  0
  9 50  1  0
 11 51  1  0
 11 52  1  0
 14 53  1  0
 15 54  1  0
 17 55  1  0
 21 56  1  0
 25 57  1  0
 27 58  1  0
 29 59  1  0
 30 60  1  0
 34 61  1  0
 34 62  1  0
 35 63  1  0
 35 64  1  0
 36 65  1  0
 36 66  1  0
 37 67  1  0
 37 68  1  0
 38 69  1  0
 42 70  1  0
 42 71  1  0
 42 72  1  0
A    1
C16
A    2
C15
A    3
C19
A    4
C20
A    5
C21
A    6
C22
A    7
C23
A    8
C24
A    9
C34
A   10
C27
A   11
C33
A   12
CL1
A   13
CL2
A   14
C3
A   15
C4
A   16
C5
A   17
C6
A   18
C7
A   19
C8
A   20
N9
A   21
C10
A   22
N11
A   23
N12
A   24
N13
A   25
C14
A   26
O17
A   27
N18
A   28
C25
A   29
C26
A   30
N28
A   31
C29
A   32
C30
A   33
N31
A   34
C32
A   35
C35
A   36
C36
A   37
C37
A   38
N38
A   39
C39
A   40
O40
A   41
O41
A   42
C42
M  END
