5TLE_RD1_A_401
     RDKit          3D

 37 38  0  0  0  0  0  0  0  0999 V2000
    1.7070  -32.0960   50.3820 C   0  0  0  0  0  0  0  0  0  0  0  0
    0.6990  -31.5480   51.1660 C   0  0  0  0  0  0  0  0  0  0  0  0
    1.0210  -30.6970   52.2110 C   0  0  0  0  0  0  0  0  0  0  0  0
    2.3450  -30.3830   52.4440 C   0  0  0  0  0  0  0  0  0  0  0  0
    3.0410  -31.7820   50.6250 C   0  0  0  0  0  0  0  0  0  0  0  0
    4.0660  -32.3180   49.8510 C   0  0  0  0  0  0  0  0  0  0  0  0
    3.3480  -30.9220   51.6630 C   0  0  0  0  0  0  0  0  0  0  0  0
    4.6610  -30.5930   51.9320 C   0  0  0  0  0  0  0  0  0  0  0  0
    5.6710  -31.1250   51.1580 C   0  0  0  0  0  0  0  0  0  0  0  0
    5.3880  -31.9950   50.1210 C   0  0  0  0  0  0  0  0  0  0  0  0
    0.0720  -30.1030   52.9930 O   0  0  0  0  0  0  0  0  0  0  0  0
    6.5230  -32.4960   49.3130 C   0  0  0  0  0  0  0  0  0  0  0  0
   -1.1140  -30.8080   53.7920 P   0  0  0  0  0  0  0  0  0  0  0  0
    6.3270  -31.9440   47.5850 P   0  0  0  0  0  0  0  0  0  0  0  0
    6.7730  -34.2750   49.4560 P   0  0  0  0  0  0  0  0  0  0  0  0
   -0.5120  -31.8550   54.7100 O   0  0  0  0  0  0  0  0  0  0  0  0
   -1.7830  -29.7270   54.6260 O   0  0  0  0  0  0  0  0  0  0  0  0
   -2.1300  -31.4060   52.8290 O   0  0  0  0  0  0  0  0  0  0  0  0
    5.6000  -33.0140   46.7810 O   0  0  0  0  0  0  0  0  0  0  0  0
    7.6780  -31.6800   46.9260 O   0  0  0  0  0  0  0  0  0  0  0  0
    5.5450  -30.6400   47.6260 O   0  0  0  0  0  0  0  0  0  0  0  0
    5.4870  -35.0500   49.1890 O   0  0  0  0  0  0  0  0  0  0  0  0
    7.2040  -34.5570   50.8850 O   0  0  0  0  0  0  0  0  0  0  0  0
    7.8440  -34.7050   48.4660 O   0  0  0  0  0  0  0  0  0  0  0  0
    1.4486  -32.7833   49.5630 H   0  0  0  0  0  0  0  0  0  0  0  0
   -0.3536  -31.7896   50.9572 H   0  0  0  0  0  0  0  0  0  0  0  0
    2.6041  -29.6948   53.2621 H   0  0  0  0  0  0  0  0  0  0  0  0
    3.8271  -33.0004   49.0220 H   0  0  0  0  0  0  0  0  0  0  0  0
    4.9009  -29.9096   52.7599 H   0  0  0  0  0  0  0  0  0  0  0  0
    6.7160  -30.8535   51.3684 H   0  0  0  0  0  0  0  0  0  0  0  0
    7.4482  -32.0603   49.7182 H   0  0  0  0  0  0  0  0  0  0  0  0
   -1.6588  -29.9277   55.5874 H   0  0  0  0  0  0  0  0  0  0  0  0
   -2.8591  -31.8351   53.3431 H   0  0  0  0  0  0  0  0  0  0  0  0
    5.1656  -33.6534   47.3996 H   0  0  0  0  0  0  0  0  0  0  0  0
    5.3883  -30.3787   48.5679 H   0  0  0  0  0  0  0  0  0  0  0  0
    5.0688  -35.3020   50.0502 H   0  0  0  0  0  0  0  0  0  0  0  0
    8.6404  -35.0247   48.9596 H   0  0  0  0  0  0  0  0  0  0  0  0
  1  2  2  0
  1  5  1  0
  2  3  1  0
  3  4  2  0
  3 11  1  0
  4  7  1  0
  5  6  2  0
  5  7  1  0
  6 10  1  0
  7  8  2  0
  8  9  1  0
  9 10  2  0
 10 12  1  0
 11 13  1  0
 12 14  1  0
 12 15  1  0
 13 16  2  0
 13 17  1  0
 13 18  1  0
 14 19  1  0
 14 20  2  0
 14 21  1  0
 15 22  1  0
 15 23  2  0
 15 24  1  0
  1 25  1  0
  2 26  1  0
  4 27  1  0
  6 28  1  0
  8 29  1  0
  9 30  1  0
 12 31  1  0
 17 32  1  0
 18 33  1  0
 19 34  1  0
 21 35  1  0
 22 36  1  0
 24 37  1  0
A    1
C8
A    2
C7
A    3
C6
A    4
C5
A    5
C8A
A    6
C1
A    7
C4A
A    8
C4
A    9
C3
A   10
C2
A   11
O1
A   12
C9
A   13
P10
A   14
P11
A   15
P12
A   16
O13
A   17
O14
A   18
O15
A   19
O16
A   20
O17
A   21
O18
A   22
O19
A   23
O20
A   24
O21
M  END
