5TMQ_7M7_A_601
     RDKit          3D

 48 51  0  0  0  0  0  0  0  0999 V2000
   23.6900    0.3360    4.3560 O   0  0  0  0  0  0  0  0  0  0  0  0
   22.5590   -0.4090    4.7280 C   0  0  0  0  0  0  0  0  0  0  0  0
   22.6020   -1.7910    4.6740 C   0  0  0  0  0  0  0  0  0  0  0  0
   21.4860   -2.5210    5.0380 C   0  0  0  0  0  0  0  0  0  0  0  0
   21.4080    0.2420    5.1450 C   0  0  0  0  0  0  0  0  0  0  0  0
   20.2890   -0.4890    5.5080 C   0  0  0  0  0  0  0  0  0  0  0  0
   20.3320   -1.8700    5.4440 C   0  0  0  0  0  0  0  0  0  0  0  0
   19.1380   -2.6940    5.8520 C   0  0  0  0  0  0  0  0  0  0  0  0
   19.2620   -3.3370    7.0710 C   0  0  0  0  0  0  0  0  0  0  0  0
   18.2430   -4.1280    7.5570 C   0  0  0  0  0  0  0  0  0  0  0  0
   18.4420   -4.9240    9.1270 S   0  0  0  0  0  0  0  0  0  0  0  0
   19.4520   -6.0430    9.0820 O   0  0  0  0  0  0  0  0  0  0  0  0
   19.2470   -7.0770    8.1490 C   0  0  0  0  0  0  0  0  0  0  0  0
   18.0050   -7.6820    8.0310 C   0  0  0  0  0  0  0  0  0  0  0  0
   17.8130   -8.7020    7.1160 C   0  0  0  0  0  0  0  0  0  0  0  0
   18.8710   -9.1190    6.3250 C   0  0  0  0  0  0  0  0  0  0  0  0
   18.6050  -10.5270    5.0660 Br  0  0  0  0  0  0  0  0  0  0  0  0
   20.1150   -8.5210    6.4440 C   0  0  0  0  0  0  0  0  0  0  0  0
   20.3050   -7.4980    7.3600 C   0  0  0  0  0  0  0  0  0  0  0  0
   18.8330   -3.9170   10.1790 O   0  0  0  0  0  0  0  0  0  0  0  0
   17.1040   -5.3710    9.6490 O   0  0  0  0  0  0  0  0  0  0  0  0
   17.0760   -4.2790    6.8290 C   0  0  0  0  0  0  0  0  0  0  0  0
   16.9460   -3.6370    5.6070 C   0  0  0  0  0  0  0  0  0  0  0  0
   17.9680   -2.8460    5.1030 C   0  0  0  0  0  0  0  0  0  0  0  0
   17.7000   -2.1880    3.7580 C   0  0  0  0  0  0  0  0  0  0  0  0
   16.4140   -1.7230    3.5300 C   0  0  0  0  0  0  0  0  0  0  0  0
   16.0830   -1.1190    2.3300 C   0  0  0  0  0  0  0  0  0  0  0  0
   17.0450   -0.9810    1.3460 C   0  0  0  0  0  0  0  0  0  0  0  0
   16.7030   -0.3660    0.1290 O   0  0  0  0  0  0  0  0  0  0  0  0
   18.3350   -1.4460    1.5620 C   0  0  0  0  0  0  0  0  0  0  0  0
   18.6640   -2.0560    2.7670 C   0  0  0  0  0  0  0  0  0  0  0  0
   24.2783    0.7235    5.0516 H   0  0  0  0  0  0  0  0  0  0  0  0
   23.5170   -2.3047    4.3440 H   0  0  0  0  0  0  0  0  0  0  0  0
   21.5140   -3.6202    5.0053 H   0  0  0  0  0  0  0  0  0  0  0  0
   21.3835    1.3409    5.1876 H   0  0  0  0  0  0  0  0  0  0  0  0
   19.3754    0.0235    5.8438 H   0  0  0  0  0  0  0  0  0  0  0  0
   20.1839   -3.2156    7.6587 H   0  0  0  0  0  0  0  0  0  0  0  0
   17.1704   -7.3503    8.6662 H   0  0  0  0  0  0  0  0  0  0  0  0
   16.8266   -9.1787    7.0173 H   0  0  0  0  0  0  0  0  0  0  0  0
   20.9506   -8.8574    5.8127 H   0  0  0  0  0  0  0  0  0  0  0  0
   21.2919   -7.0225    7.4600 H   0  0  0  0  0  0  0  0  0  0  0  0
   16.2577   -4.9036    7.2168 H   0  0  0  0  0  0  0  0  0  0  0  0
   16.0182   -3.7567    5.0283 H   0  0  0  0  0  0  0  0  0  0  0  0
   15.6483   -1.8355    4.3117 H   0  0  0  0  0  0  0  0  0  0  0  0
   15.0606   -0.7507    2.1596 H   0  0  0  0  0  0  0  0  0  0  0  0
   16.2219    0.4992    0.1296 H   0  0  0  0  0  0  0  0  0  0  0  0
   19.0983   -1.3316    0.7782 H   0  0  0  0  0  0  0  0  0  0  0  0
   19.6838   -2.4326    2.9349 H   0  0  0  0  0  0  0  0  0  0  0  0
 29 28  1  0
 28 30  2  0
 28 27  1  0
 30 31  1  0
 27 26  2  0
 31 25  2  0
 26 25  1  0
 25 24  1  0
  1  2  1  0
  3  2  2  0
  3  4  1  0
  2  5  1  0
  4  7  2  0
 17 16  1  0
 24 23  2  0
 24  8  1  0
  5  6  2  0
  7  6  1  0
  7  8  1  0
 23 22  1  0
  8  9  2  0
 16 18  2  0
 16 15  1  0
 18 19  1  0
 22 10  2  0
  9 10  1  0
 15 14  2  0
 19 13  2  0
 10 11  1  0
 14 13  1  0
 13 12  1  0
 12 11  1  0
 11 21  2  0
 11 20  2  0
  1 32  1  0
  3 33  1  0
  4 34  1  0
  5 35  1  0
  6 36  1  0
  9 37  1  0
 14 38  1  0
 15 39  1  0
 18 40  1  0
 19 41  1  0
 22 42  1  0
 23 43  1  0
 26 44  1  0
 27 45  1  0
 29 46  1  0
 30 47  1  0
 31 48  1  0
A    1
O01
A    2
C02
A    3
C03
A    4
C04
A    5
C05
A    6
C06
A    7
C07
A    8
C08
A    9
C09
A   10
C10
A   11
S11
A   12
O12
A   13
C13
A   14
C14
A   15
C15
A   16
C16
A   17
BR1
A   18
C18
A   19
C19
A   20
O20
A   21
O21
A   22
C22
A   23
C23
A   24
C24
A   25
C25
A   26
C26
A   27
C27
A   28
C28
A   29
O29
A   30
C30
A   31
C31
M  END
