5TMR_7FD_A_601
     RDKit          3D

 43 45  0  0  0  0  0  0  0  0999 V2000
    0.8370    5.5920   20.2990 O   0  0  0  0  0  0  0  0  0  0  0  0
   -0.4630    5.3360   20.5890 C   0  0  0  0  0  0  0  0  0  0  0  0
   -0.9320    5.5460   21.8480 C   0  0  0  0  0  0  0  0  0  0  0  0
   -2.2350    5.2860   22.1360 C   0  0  0  0  0  0  0  0  0  0  0  0
   -1.2600    4.8600   19.6040 C   0  0  0  0  0  0  0  0  0  0  0  0
   -2.5630    4.5820   19.8900 C   0  0  0  0  0  0  0  0  0  0  0  0
   -3.0440    4.7950   21.1530 C   0  0  0  0  0  0  0  0  0  0  0  0
   -4.4930    4.4950   21.4820 C   0  0  0  0  0  0  0  0  0  0  0  0
   -5.0310    3.1120   21.1740 C   0  0  0  0  0  0  0  0  0  0  0  0
   -4.3760    1.9190   21.5020 C   0  0  0  0  0  0  0  0  0  0  0  0
   -4.9270    0.7120   21.1930 C   0  0  0  0  0  0  0  0  0  0  0  0
   -6.0990    0.6320   20.5680 C   0  0  0  0  0  0  0  0  0  0  0  0
   -6.7160   -0.7130   20.2140 C   0  0  0  0  0  0  0  0  0  0  0  0
   -6.7560    1.7270   20.2330 C   0  0  0  0  0  0  0  0  0  0  0  0
   -6.2530    2.9580   20.5210 C   0  0  0  0  0  0  0  0  0  0  0  0
   -5.1770    5.3060   22.2440 C   0  0  0  0  0  0  0  0  0  0  0  0
   -6.2730    4.7460   23.1420 C   0  0  0  0  0  0  0  0  0  0  0  0
   -6.4660    5.6450   24.3320 C   0  0  0  0  0  0  0  0  0  0  0  0
   -6.8040    7.0240   23.8370 C   0  0  0  0  0  0  0  0  0  0  0  0
   -5.6170    7.6780   23.1650 C   0  0  0  0  0  0  0  0  0  0  0  0
   -4.7020    6.7420   22.3920 C   0  0  0  0  0  0  0  0  0  0  0  0
    1.4913    5.7208   21.0307 H   0  0  0  0  0  0  0  0  0  0  0  0
   -0.2590    5.9252   22.6312 H   0  0  0  0  0  0  0  0  0  0  0  0
   -2.6310    5.4686   23.1459 H   0  0  0  0  0  0  0  0  0  0  0  0
   -0.8630    4.7004   18.5906 H   0  0  0  0  0  0  0  0  0  0  0  0
   -3.2269    4.1871   19.1069 H   0  0  0  0  0  0  0  0  0  0  0  0
   -3.4041    1.9567   22.0158 H   0  0  0  0  0  0  0  0  0  0  0  0
   -4.3944   -0.2114   21.4646 H   0  0  0  0  0  0  0  0  0  0  0  0
   -6.9653   -1.2564   21.1373 H   0  0  0  0  0  0  0  0  0  0  0  0
   -7.6307   -0.5530   19.6244 H   0  0  0  0  0  0  0  0  0  0  0  0
   -5.9980   -1.3020   19.6244 H   0  0  0  0  0  0  0  0  0  0  0  0
   -7.7224    1.6431   19.7144 H   0  0  0  0  0  0  0  0  0  0  0  0
   -6.8240    3.8526   20.2318 H   0  0  0  0  0  0  0  0  0  0  0  0
   -7.2135    4.6840   22.5749 H   0  0  0  0  0  0  0  0  0  0  0  0
   -5.9818    3.7433   23.4880 H   0  0  0  0  0  0  0  0  0  0  0  0
   -5.5401    5.6800   24.9249 H   0  0  0  0  0  0  0  0  0  0  0  0
   -7.2790    5.2620   24.9663 H   0  0  0  0  0  0  0  0  0  0  0  0
   -7.1176    7.6432   24.6903 H   0  0  0  0  0  0  0  0  0  0  0  0
   -7.6141    6.9366   23.0980 H   0  0  0  0  0  0  0  0  0  0  0  0
   -5.0168    8.1714   23.9436 H   0  0  0  0  0  0  0  0  0  0  0  0
   -6.0366    8.3711   22.4210 H   0  0  0  0  0  0  0  0  0  0  0  0
   -4.5730    7.1581   21.3819 H   0  0  0  0  0  0  0  0  0  0  0  0
   -3.7751    6.6849   22.9816 H   0  0  0  0  0  0  0  0  0  0  0  0
  5  6  1  0
  5  2  2  0
  1  2  1  0
  6  7  2  0
 13 12  1  0
 14 15  2  0
 14 12  1  0
  2  3  1  0
 15  9  1  0
 12 11  2  0
  7  8  1  0
  7  4  1  0
  9  8  1  0
  9 10  2  0
 11 10  1  0
  3  4  2  0
  8 16  2  0
 20 21  1  0
 20 19  1  0
 16 21  1  0
 16 17  1  0
 18 19  1  0
 18 17  1  0
  1 22  1  0
  3 23  1  0
  4 24  1  0
  5 25  1  0
  6 26  1  0
 10 27  1  0
 11 28  1  0
 13 29  1  0
 13 30  1  0
 13 31  1  0
 14 32  1  0
 15 33  1  0
 17 34  1  0
 17 35  1  0
 18 36  1  0
 18 37  1  0
 19 38  1  0
 19 39  1  0
 20 40  1  0
 20 41  1  0
 21 42  1  0
 21 43  1  0
A    1
O01
A    2
C02
A    3
C03
A    4
C04
A    5
C05
A    6
C06
A    7
C07
A    8
C08
A    9
C09
A   10
C10
A   11
C11
A   12
C12
A   13
C13
A   14
C20
A   15
C21
A   16
C22
A   17
C23
A   18
C24
A   19
C25
A   20
C26
A   21
C27
M  END
