5TO8_7FM_A_701
     RDKit          3D

 65 69  0  0  0  0  0  0  0  0999 V2000
   -2.0610  -10.3590   40.5700 C   0  0  0  0  0  0  0  0  0  0  0  0
   -3.1170  -11.7950   42.6720 C   0  0  0  0  0  0  0  0  0  0  0  0
   -3.8640  -12.6100   43.6800 C   0  0  0  0  0  0  0  0  0  0  0  0
   -0.6970  -10.3290   36.5750 C   0  0  0  0  0  0  0  0  0  0  0  0
   -1.8210  -10.9080   35.9890 C   0  0  0  0  0  0  0  0  0  0  0  0
   -1.6600   -8.1940   35.9530 C   0  0  0  0  0  0  0  0  0  0  0  0
    2.0300   -9.0340   41.4650 N   0  0  0  0  0  0  0  0  0  0  0  0
    0.9390   -9.6680   41.0120 C   0  0  0  0  0  0  0  0  0  0  0  0
    0.7980  -10.0800   39.7250 N   0  0  0  0  0  0  0  0  0  0  0  0
    1.7720   -9.8430   38.8300 C   0  0  0  0  0  0  0  0  0  0  0  0
    2.9200   -9.1930   39.2330 C   0  0  0  0  0  0  0  0  0  0  0  0
    2.9910   -8.8020   40.5580 C   0  0  0  0  0  0  0  0  0  0  0  0
    4.0340   -8.8690   38.3150 C   0  0  0  0  0  0  0  0  0  0  0  0
   -0.0830   -9.8810   41.9510 N   0  0  0  0  0  0  0  0  0  0  0  0
   -1.3380  -10.4670   41.7760 C   0  0  0  0  0  0  0  0  0  0  0  0
   -3.3020  -10.9670   40.4240 C   0  0  0  0  0  0  0  0  0  0  0  0
   -3.8290  -11.6870   41.4760 C   0  0  0  0  0  0  0  0  0  0  0  0
   -1.8800  -11.1950   42.8370 C   0  0  0  0  0  0  0  0  0  0  0  0
   -5.0400  -12.4130   41.5840 N   0  0  0  0  0  0  0  0  0  0  0  0
   -5.2460  -12.6990   43.0180 C   0  0  0  0  0  0  0  0  0  0  0  0
    1.5160  -10.2930   37.5490 N   0  0  0  0  0  0  0  0  0  0  0  0
    0.4060  -11.1430   37.2090 C   0  0  0  0  0  0  0  0  0  0  0  0
   -2.8420  -10.2200   35.4050 N   0  0  0  0  0  0  0  0  0  0  0  0
   -2.7360   -8.8690   35.4000 C   0  0  0  0  0  0  0  0  0  0  0  0
   -0.6240   -8.9330   36.5380 C   0  0  0  0  0  0  0  0  0  0  0  0
   -1.9670  -12.3410   35.9950 N   0  0  0  0  0  0  0  0  0  0  0  0
   -2.5680  -13.0870   37.1550 C   0  0  0  0  0  0  0  0  0  0  0  0
   -1.4690  -13.1930   34.5670 S   0  0  0  0  0  0  0  0  0  0  0  0
   -4.0440  -12.7310   37.3480 C   0  0  0  0  0  0  0  0  0  0  0  0
   -5.9670  -12.8650   40.6430 C   0  0  0  0  0  0  0  0  0  0  0  0
   -6.9720  -13.5050   40.9690 O   0  0  0  0  0  0  0  0  0  0  0  0
   -4.6200  -13.4130   38.5900 C   0  0  0  0  0  0  0  0  0  0  0  0
   -5.8010  -12.6200   39.1510 C   0  0  0  0  0  0  0  0  0  0  0  0
   -0.5520  -12.3690   33.7940 O   0  0  0  0  0  0  0  0  0  0  0  0
   -1.1430  -14.5640   34.8900 O   0  0  0  0  0  0  0  0  0  0  0  0
   -3.0530  -13.2140   33.7590 C   0  0  0  0  0  0  0  0  0  0  0  0
    5.0490   -8.1440   38.8710 F   0  0  0  0  0  0  0  0  0  0  0  0
    4.6120   -9.9430   37.7390 F   0  0  0  0  0  0  0  0  0  0  0  0
    3.5350   -8.1080   37.3100 F   0  0  0  0  0  0  0  0  0  0  0  0
   -1.6365   -9.7853   39.7329 H   0  0  0  0  0  0  0  0  0  0  0  0
   -3.4131  -13.6050   43.8093 H   0  0  0  0  0  0  0  0  0  0  0  0
   -3.8731  -12.1814   44.6930 H   0  0  0  0  0  0  0  0  0  0  0  0
   -1.6199   -7.0949   35.9330 H   0  0  0  0  0  0  0  0  0  0  0  0
    3.8931   -8.2666   40.8892 H   0  0  0  0  0  0  0  0  0  0  0  0
    0.1230   -9.5582   42.9072 H   0  0  0  0  0  0  0  0  0  0  0  0
   -3.8583  -10.8751   39.4795 H   0  0  0  0  0  0  0  0  0  0  0  0
   -1.3340  -11.2902   43.7872 H   0  0  0  0  0  0  0  0  0  0  0  0
   -5.9280  -11.9576   43.4598 H   0  0  0  0  0  0  0  0  0  0  0  0
   -5.6962  -13.6916   43.1662 H   0  0  0  0  0  0  0  0  0  0  0  0
    2.1556  -10.0038   36.7952 H   0  0  0  0  0  0  0  0  0  0  0  0
    0.0241  -11.6248   38.1212 H   0  0  0  0  0  0  0  0  0  0  0  0
    0.7444  -11.9081   36.4948 H   0  0  0  0  0  0  0  0  0  0  0  0
   -3.5414   -8.2813   34.9354 H   0  0  0  0  0  0  0  0  0  0  0  0
    0.2464   -8.4157   36.9680 H   0  0  0  0  0  0  0  0  0  0  0  0
   -2.4827  -14.1676   36.9676 H   0  0  0  0  0  0  0  0  0  0  0  0
   -2.0228  -12.8030   38.0672 H   0  0  0  0  0  0  0  0  0  0  0  0
   -4.1383  -11.6409   37.4611 H   0  0  0  0  0  0  0  0  0  0  0  0
   -4.6042  -13.0797   36.4679 H   0  0  0  0  0  0  0  0  0  0  0  0
   -4.9606  -14.4236   38.3204 H   0  0  0  0  0  0  0  0  0  0  0  0
   -3.8346  -13.4639   39.3585 H   0  0  0  0  0  0  0  0  0  0  0  0
   -5.6267  -11.5474   38.9804 H   0  0  0  0  0  0  0  0  0  0  0  0
   -6.7172  -12.9495   38.6392 H   0  0  0  0  0  0  0  0  0  0  0  0
   -3.8508  -13.2246   34.5163 H   0  0  0  0  0  0  0  0  0  0  0  0
   -3.1559  -12.3171   33.1305 H   0  0  0  0  0  0  0  0  0  0  0  0
   -3.1321  -14.1133   33.1305 H   0  0  0  0  0  0  0  0  0  0  0  0
 36 28  1  0
 34 28  2  0
 28 35  2  0
 28 26  1  0
 24 23  2  0
 24  6  1  0
 23  5  1  0
  6 25  2  0
  5 26  1  0
  5  4  2  0
 26 27  1  0
 25  4  1  0
  4 22  1  0
 27 29  1  0
 22 21  1  0
 39 13  1  0
 29 32  1  0
 21 10  1  0
 38 13  1  0
 13 37  1  0
 13 11  1  0
 32 33  1  0
 10 11  2  0
 10  9  1  0
 33 30  1  0
 11 12  1  0
  9  8  2  0
 16  1  2  0
 16 17  1  0
 12  7  2  0
  1 15  1  0
 30 31  2  0
 30 19  1  0
  8  7  1  0
  8 14  1  0
 17 19  1  0
 17  2  2  0
 19 20  1  0
 15 14  1  0
 15 18  2  0
  2 18  1  0
  2  3  1  0
 20  3  1  0
  1 40  1  0
  3 41  1  0
  3 42  1  0
  6 43  1  0
 12 44  1  0
 14 45  1  0
 16 46  1  0
 18 47  1  0
 20 48  1  0
 20 49  1  0
 21 50  1  0
 22 51  1  0
 22 52  1  0
 24 53  1  0
 25 54  1  0
 27 55  1  0
 27 56  1  0
 29 57  1  0
 29 58  1  0
 32 59  1  0
 32 60  1  0
 33 61  1  0
 33 62  1  0
 36 63  1  0
 36 64  1  0
 36 65  1  0
A    1
C10
A    2
C13
A    3
C17
A    4
C20
A    5
C21
A    6
C24
A    7
N01
A    8
C02
A    9
N03
A   10
C04
A   11
C05
A   12
C06
A   13
C07
A   14
N08
A   15
C09
A   16
C11
A   17
C12
A   18
C14
A   19
N15
A   20
C16
A   21
N18
A   22
C19
A   23
N22
A   24
C23
A   25
C25
A   26
N26
A   27
C27
A   28
S28
A   29
C29
A   30
C30
A   31
O31
A   32
C32
A   33
C33
A   34
O34
A   35
O35
A   36
C36
A   37
F37
A   38
F38
A   39
F39
M  END
