3BZ3_YAM_A_1
     RDKit          3D

 55 58  0  0  0  0  0  0  0  0999 V2000
    7.2060    1.7490    8.4340 C   0  0  0  0  0  0  0  0  0  0  0  0
    6.4770    4.4940   10.5380 C   0  0  0  0  0  0  0  0  0  0  0  0
   14.2790    3.8010    6.7730 N   0  0  0  0  0  0  0  0  0  0  0  0
   13.9140    4.9040    7.4010 C   0  0  0  0  0  0  0  0  0  0  0  0
   12.5840    5.2750    7.4520 C   0  0  0  0  0  0  0  0  0  0  0  0
    7.9820    4.1550    6.2180 C   0  0  0  0  0  0  0  0  0  0  0  0
    7.0960    3.9320    7.2730 C   0  0  0  0  0  0  0  0  0  0  0  0
   11.7980   -0.2350    2.6010 C   0  0  0  0  0  0  0  0  0  0  0  0
   12.2360    6.5400    8.2100 C   0  0  0  0  0  0  0  0  0  0  0  0
    6.2440    5.3390    5.0870 C   0  0  0  0  0  0  0  0  0  0  0  0
   11.7640    1.0410    4.6440 C   0  0  0  0  0  0  0  0  0  0  0  0
    5.4100    5.0740    6.1560 C   0  0  0  0  0  0  0  0  0  0  0  0
    8.7670    5.0540    9.2680 O   0  0  0  0  0  0  0  0  0  0  0  0
    8.0250    3.9480    9.7600 S   0  0  0  0  0  0  0  0  0  0  0  0
    8.6220    2.8850   10.4820 O   0  0  0  0  0  0  0  0  0  0  0  0
    7.4760    3.1920    8.3950 N   0  0  0  0  0  0  0  0  0  0  0  0
    7.5450    4.8560    5.1080 C   0  0  0  0  0  0  0  0  0  0  0  0
    5.8430    4.3860    7.2030 N   0  0  0  0  0  0  0  0  0  0  0  0
    9.3970    3.6440    6.2570 C   0  0  0  0  0  0  0  0  0  0  0  0
   10.2950    4.6680    6.8030 N   0  0  0  0  0  0  0  0  0  0  0  0
   11.6570    4.4380    6.7960 C   0  0  0  0  0  0  0  0  0  0  0  0
   11.3120    6.2820    9.2180 F   0  0  0  0  0  0  0  0  0  0  0  0
   11.7330    7.5280    7.3710 F   0  0  0  0  0  0  0  0  0  0  0  0
   13.3970    7.0620    8.7780 F   0  0  0  0  0  0  0  0  0  0  0  0
   12.1030    3.3470    6.1710 N   0  0  0  0  0  0  0  0  0  0  0  0
   13.3890    3.0320    6.1780 C   0  0  0  0  0  0  0  0  0  0  0  0
   13.8880    1.9310    5.5100 N   0  0  0  0  0  0  0  0  0  0  0  0
   13.1490    1.1950    4.5730 C   0  0  0  0  0  0  0  0  0  0  0  0
   13.8490    0.6270    3.5140 C   0  0  0  0  0  0  0  0  0  0  0  0
   13.1810   -0.0890    2.5510 C   0  0  0  0  0  0  0  0  0  0  0  0
   13.6520   -0.8140    1.3110 C   0  0  0  0  0  0  0  0  0  0  0  0
   11.0890    0.3320    3.6640 C   0  0  0  0  0  0  0  0  0  0  0  0
   11.3590   -0.9520    1.4890 N   0  0  0  0  0  0  0  0  0  0  0  0
   12.3740   -1.3540    0.7050 C   0  0  0  0  0  0  0  0  0  0  0  0
   12.2760   -2.0020   -0.3200 O   0  0  0  0  0  0  0  0  0  0  0  0
    7.1437    1.4158    9.4805 H   0  0  0  0  0  0  0  0  0  0  0  0
    6.2532    1.5404    7.9254 H   0  0  0  0  0  0  0  0  0  0  0  0
    8.0189    1.2100    7.9254 H   0  0  0  0  0  0  0  0  0  0  0  0
    6.5834    4.4565   11.6322 H   0  0  0  0  0  0  0  0  0  0  0  0
    6.2538    5.5251   10.2265 H   0  0  0  0  0  0  0  0  0  0  0  0
    5.6563    3.8311   10.2265 H   0  0  0  0  0  0  0  0  0  0  0  0
   14.6748    5.5323    7.8873 H   0  0  0  0  0  0  0  0  0  0  0  0
    5.8815    5.9255    4.2299 H   0  0  0  0  0  0  0  0  0  0  0  0
   11.2058    1.4845    5.4817 H   0  0  0  0  0  0  0  0  0  0  0  0
    4.3724    5.4389    6.1381 H   0  0  0  0  0  0  0  0  0  0  0  0
    8.2183    5.0279    4.2553 H   0  0  0  0  0  0  0  0  0  0  0  0
    9.4412    2.7470    6.8922 H   0  0  0  0  0  0  0  0  0  0  0  0
    9.7162    3.3980    5.2335 H   0  0  0  0  0  0  0  0  0  0  0  0
    9.9153    5.5455    7.1859 H   0  0  0  0  0  0  0  0  0  0  0  0
   14.8539    1.6350    5.7107 H   0  0  0  0  0  0  0  0  0  0  0  0
   14.9399    0.7515    3.4475 H   0  0  0  0  0  0  0  0  0  0  0  0
   14.1529   -0.1218    0.6182 H   0  0  0  0  0  0  0  0  0  0  0  0
   14.3864   -1.6028    1.5310 H   0  0  0  0  0  0  0  0  0  0  0  0
    9.9968    0.2153    3.7221 H   0  0  0  0  0  0  0  0  0  0  0  0
   10.3682   -1.1513    1.2905 H   0  0  0  0  0  0  0  0  0  0  0  0
 16  1  1  0
 14  2  1  0
 26  3  2  0
  3  4  1  0
  4  5  2  0
 21  5  1  0
  5  9  1  0
 17  6  1  0
  6 19  1  0
  6  7  2  0
 18  7  1  0
  7 16  1  0
 33  8  1  0
 30  8  2  0
  8 32  1  0
 23  9  1  0
  9 24  1  0
  9 22  1  0
 10 17  2  0
 10 12  1  0
 32 11  2  0
 28 11  1  0
 12 18  2  0
 13 14  2  0
 16 14  1  0
 14 15  2  0
 19 20  1  0
 21 20  1  0
 25 21  2  0
 25 26  1  0
 27 26  1  0
 28 27  1  0
 29 28  2  0
 30 29  1  0
 31 30  1  0
 34 31  1  0
 34 33  1  0
 35 34  2  0
  1 36  1  0
  1 37  1  0
  1 38  1  0
  2 39  1  0
  2 40  1  0
  2 41  1  0
  4 42  1  0
 10 43  1  0
 11 44  1  0
 12 45  1  0
 17 46  1  0
 19 47  1  0
 19 48  1  0
 20 49  1  0
 27 50  1  0
 29 51  1  0
 31 52  1  0
 31 53  1  0
 32 54  1  0
 33 55  1  0
A    1
C35
A    2
C34
A    3
N2
A    4
C7
A    5
C6
A    6
C13
A    7
C20
A    8
C21
A    9
C8
A   10
C18
A   11
C16
A   12
C19
A   13
O33
A   14
S31
A   15
O32
A   16
N30
A   17
C17
A   18
N1
A   19
C12
A   20
N10
A   21
C5
A   22
F29
A   23
F28
A   24
F27
A   25
N4
A   26
C3
A   27
N9
A   28
C11
A   29
C14
A   30
C22
A   31
C23
A   32
C15
A   33
N25
A   34
C24
A   35
O26
M  END
