5TPG_7H5_A_505
     RDKit          3D

 72 76  0  0  0  0  0  0  0  0999 V2000
   15.3400   -4.3910   18.1870 C   0  0  0  0  0  0  0  0  0  0  0  0
   10.9150   -5.6500   19.5290 C   0  0  0  0  0  0  0  0  0  0  0  0
    9.9140   -6.6070   20.1260 C   0  0  0  0  0  0  0  0  0  0  0  0
    8.8280   -8.7560   19.5820 C   0  0  0  0  0  0  0  0  0  0  0  0
    7.3670  -11.3310   24.0510 F   0  0  0  0  0  0  0  0  0  0  0  0
   13.0150   -5.2340   18.3430 C   0  0  0  0  0  0  0  0  0  0  0  0
   14.4820   -5.5310   18.5900 C   0  0  0  0  0  0  0  0  0  0  0  0
   13.2130   -6.6230   20.3290 C   0  0  0  0  0  0  0  0  0  0  0  0
   15.4390   -4.1200   16.8980 O   0  0  0  0  0  0  0  0  0  0  0  0
   12.2620   -6.2630   19.1540 C   0  0  0  0  0  0  0  0  0  0  0  0
   14.4330   -5.8740   19.9960 N   0  0  0  0  0  0  0  0  0  0  0  0
    3.7020  -15.1210   16.7810 O   0  0  0  0  0  0  0  0  0  0  0  0
    3.6990  -13.7440   17.1530 S   0  0  0  0  0  0  0  0  0  0  0  0
    2.4250  -13.1270   16.8930 O   0  0  0  0  0  0  0  0  0  0  0  0
    4.7370  -12.8910   16.1730 C   0  0  0  0  0  0  0  0  0  0  0  0
    4.0650  -13.6440   18.6970 C   0  0  0  0  0  0  0  0  0  0  0  0
    4.7530  -14.6750   19.3240 C   0  0  0  0  0  0  0  0  0  0  0  0
    5.0340  -14.5770   20.6910 C   0  0  0  0  0  0  0  0  0  0  0  0
    4.5810  -13.4770   21.4230 C   0  0  0  0  0  0  0  0  0  0  0  0
    3.6130  -12.5390   19.4260 C   0  0  0  0  0  0  0  0  0  0  0  0
    3.8670  -12.4440   20.7930 C   0  0  0  0  0  0  0  0  0  0  0  0
    3.3780  -11.2020   21.4690 C   0  0  0  0  0  0  0  0  0  0  0  0
    2.0710  -10.7710   21.2830 C   0  0  0  0  0  0  0  0  0  0  0  0
    1.6250   -9.5890   21.8700 C   0  0  0  0  0  0  0  0  0  0  0  0
   -0.0540   -9.0570   21.6510 Cl  0  0  0  0  0  0  0  0  0  0  0  0
    2.4490   -8.7940   22.6450 C   0  0  0  0  0  0  0  0  0  0  0  0
    3.7550   -9.1640   22.8400 C   0  0  0  0  0  0  0  0  0  0  0  0
    4.2730  -10.3390   22.2860 C   0  0  0  0  0  0  0  0  0  0  0  0
    5.7060  -10.6750   22.5410 C   0  0  0  0  0  0  0  0  0  0  0  0
    6.0770  -10.9770   23.9920 C   0  0  0  0  0  0  0  0  0  0  0  0
    5.9190   -9.9180   24.7560 F   0  0  0  0  0  0  0  0  0  0  0  0
    5.3130  -11.9640   24.4130 F   0  0  0  0  0  0  0  0  0  0  0  0
    6.4020   -9.5250   22.0960 O   0  0  0  0  0  0  0  0  0  0  0  0
    7.1210   -9.6160   20.9480 C   0  0  0  0  0  0  0  0  0  0  0  0
    8.0760   -8.6830   20.7470 C   0  0  0  0  0  0  0  0  0  0  0  0
    6.9320  -10.6170   20.0740 N   0  0  0  0  0  0  0  0  0  0  0  0
    7.7220  -10.7020   18.9920 C   0  0  0  0  0  0  0  0  0  0  0  0
    7.5010  -11.6950   18.1510 N   0  0  0  0  0  0  0  0  0  0  0  0
    8.6600   -9.7860   18.7530 N   0  0  0  0  0  0  0  0  0  0  0  0
    9.8520   -7.8600   19.3900 N   0  0  0  0  0  0  0  0  0  0  0  0
   10.9910   -8.4640   18.7000 C   0  0  0  0  0  0  0  0  0  0  0  0
   11.9620   -7.4190   18.2280 C   0  0  0  0  0  0  0  0  0  0  0  0
   15.9050   -3.6970   19.0270 O   0  0  0  0  0  0  0  0  0  0  0  0
   11.0981   -4.8497   20.2611 H   0  0  0  0  0  0  0  0  0  0  0  0
   10.4708   -5.2940   18.5878 H   0  0  0  0  0  0  0  0  0  0  0  0
    8.9198   -6.1364   20.1105 H   0  0  0  0  0  0  0  0  0  0  0  0
   10.2314   -6.8326   21.1548 H   0  0  0  0  0  0  0  0  0  0  0  0
   12.7647   -4.2176   18.6810 H   0  0  0  0  0  0  0  0  0  0  0  0
   12.7590   -5.2842   17.2744 H   0  0  0  0  0  0  0  0  0  0  0  0
   14.9474   -6.3334   17.9987 H   0  0  0  0  0  0  0  0  0  0  0  0
   12.7959   -6.2943   21.2923 H   0  0  0  0  0  0  0  0  0  0  0  0
   13.3806   -7.7045   20.4402 H   0  0  0  0  0  0  0  0  0  0  0  0
   15.2535   -6.4519   20.2277 H   0  0  0  0  0  0  0  0  0  0  0  0
    5.4381  -12.3149   16.7948 H   0  0  0  0  0  0  0  0  0  0  0  0
    5.3000  -13.5908   15.5380 H   0  0  0  0  0  0  0  0  0  0  0  0
    4.1595  -12.2030   15.5380 H   0  0  0  0  0  0  0  0  0  0  0  0
    5.0733  -15.5585   18.7522 H   0  0  0  0  0  0  0  0  0  0  0  0
    5.6129  -15.3679   21.1904 H   0  0  0  0  0  0  0  0  0  0  0  0
    4.7851  -13.4190   22.5023 H   0  0  0  0  0  0  0  0  0  0  0  0
    3.0536  -11.7401   18.9172 H   0  0  0  0  0  0  0  0  0  0  0  0
    1.3822  -11.3679   20.6671 H   0  0  0  0  0  0  0  0  0  0  0  0
    2.0600   -7.8719   23.1016 H   0  0  0  0  0  0  0  0  0  0  0  0
    4.4105   -8.5216   23.4463 H   0  0  0  0  0  0  0  0  0  0  0  0
    5.9571  -11.6120   22.0223 H   0  0  0  0  0  0  0  0  0  0  0  0
    8.2534   -7.8873   21.4855 H   0  0  0  0  0  0  0  0  0  0  0  0
    7.2913  -12.6372   18.5104 H   0  0  0  0  0  0  0  0  0  0  0  0
    7.5382  -11.5277   17.1354 H   0  0  0  0  0  0  0  0  0  0  0  0
   10.6241   -9.0303   17.8313 H   0  0  0  0  0  0  0  0  0  0  0  0
   11.5119   -9.1274   19.4061 H   0  0  0  0  0  0  0  0  0  0  0  0
   12.9149   -7.9275   18.0195 H   0  0  0  0  0  0  0  0  0  0  0  0
   11.4693   -6.9565   17.3600 H   0  0  0  0  0  0  0  0  0  0  0  0
   15.7624   -3.8721   19.9909 H   0  0  0  0  0  0  0  0  0  0  0  0
 15 13  1  0
 12 13  2  0
 14 13  2  0
  9  1  2  0
 13 16  1  0
 38 37  1  0
  1  7  1  0
  1 43  1  0
 42 41  1  0
 42 10  1  0
  6  7  1  0
  6 10  1  0
  7 11  1  0
 41 40  1  0
 16 17  2  0
 16 20  1  0
 39 37  2  0
 39  4  1  0
 37 36  1  0
 10  2  1  0
 10  8  1  0
 17 18  1  0
 40  4  1  0
 40  3  1  0
 20 21  2  0
  2  3  1  0
  4 35  2  0
 11  8  1  0
 36 34  2  0
 18 19  2  0
 35 34  1  0
 21 19  1  0
 21 22  1  0
 34 33  1  0
 23 22  2  0
 23 24  1  0
 22 28  1  0
 25 24  1  0
 24 26  2  0
 33 29  1  0
 28 29  1  0
 28 27  2  0
 29 30  1  0
 26 27  1  0
 30  5  1  0
 30 32  1  0
 30 31  1  0
  2 44  1  0
  2 45  1  0
  3 46  1  0
  3 47  1  0
  6 48  1  0
  6 49  1  0
  7 50  1  0
  8 51  1  0
  8 52  1  0
 11 53  1  0
 15 54  1  0
 15 55  1  0
 15 56  1  0
 17 57  1  0
 18 58  1  0
 19 59  1  0
 20 60  1  0
 23 61  1  0
 26 62  1  0
 27 63  1  0
 29 64  1  0
 35 65  1  0
 38 66  1  0
 38 67  1  0
 41 68  1  0
 41 69  1  0
 42 70  1  0
 42 71  1  0
 43 72  1  0
A    1
C4
A    2
C5
A    3
C6
A    4
C7
A    5
F
A    6
C3
A    7
C2
A    8
C1
A    9
O
A   10
C
A   11
N
A   12
O4
A   13
S
A   14
O3
A   15
C25
A   16
C23
A   17
C22
A   18
C21
A   19
C20
A   20
C24
A   21
C19
A   22
C14
A   23
C15
A   24
C16
A   25
CL
A   26
C17
A   27
C18
A   28
C13
A   29
C11
A   30
C12
A   31
F2
A   32
F1
A   33
O2
A   34
C9
A   35
C8
A   36
N2
A   37
C10
A   38
N4
A   39
N3
A   40
N1
A   41
C26
A   42
C27
A   43
O1
M  END
