5TQ7_7GT_A_4000
     RDKit          3D

 64 68  0  0  0  0  0  0  0  0999 V2000
   16.9030   -8.6600   13.5070 C   0  0  0  0  0  0  0  0  0  0  0  0
   16.5380   -7.7250   12.5530 C   0  0  0  0  0  0  0  0  0  0  0  0
   17.5460   -8.2620   14.6700 C   0  0  0  0  0  0  0  0  0  0  0  0
   10.7230   -1.6240   11.1210 C   0  0  0  0  0  0  0  0  0  0  0  0
   10.2220   -1.0200    8.3020 C   0  0  0  0  0  0  0  0  0  0  0  0
   11.5660   -0.8590    8.9890 C   0  0  0  0  0  0  0  0  0  0  0  0
   10.7340    1.0910    7.0260 C   0  0  0  0  0  0  0  0  0  0  0  0
    7.3440   -3.6840    6.5580 C   0  0  0  0  0  0  0  0  0  0  0  0
   11.7150   -1.8460   10.0640 N   0  0  0  0  0  0  0  0  0  0  0  0
   13.0170   -1.9400   10.5040 C   0  0  0  0  0  0  0  0  0  0  0  0
    9.0870    0.7270    9.7920 C   0  0  0  0  0  0  0  0  0  0  0  0
    9.1420   -0.7300    9.3520 C   0  0  0  0  0  0  0  0  0  0  0  0
    9.3010   -1.6470   10.5630 C   0  0  0  0  0  0  0  0  0  0  0  0
   10.0180   -0.1780    7.1050 N   0  0  0  0  0  0  0  0  0  0  0  0
    9.1520   -0.5180    6.0940 C   0  0  0  0  0  0  0  0  0  0  0  0
    8.3990   -1.7310    6.2500 C   0  0  0  0  0  0  0  0  0  0  0  0
    8.3670   -2.9280    7.0420 C   0  0  0  0  0  0  0  0  0  0  0  0
    6.7510   -3.0440    5.4960 N   0  0  0  0  0  0  0  0  0  0  0  0
    7.3790   -1.8430    5.3030 C   0  0  0  0  0  0  0  0  0  0  0  0
    7.1350   -0.9540    4.3310 N   0  0  0  0  0  0  0  0  0  0  0  0
    7.9730    0.0850    4.2910 C   0  0  0  0  0  0  0  0  0  0  0  0
    8.9860    0.3770    5.1110 N   0  0  0  0  0  0  0  0  0  0  0  0
   13.9140   -1.1980   10.1340 O   0  0  0  0  0  0  0  0  0  0  0  0
   13.2240   -2.9330   11.4090 N   0  0  0  0  0  0  0  0  0  0  0  0
   12.4500   -4.1670   11.5720 C   0  0  0  0  0  0  0  0  0  0  0  0
   13.5190   -5.2310   11.7890 C   0  0  0  0  0  0  0  0  0  0  0  0
   14.7630   -4.5360   12.3530 C   0  0  0  0  0  0  0  0  0  0  0  0
   14.5530   -3.0430   12.0200 C   0  0  0  0  0  0  0  0  0  0  0  0
   16.2710   -5.1780   11.6240 S   0  0  0  0  0  0  0  0  0  0  0  0
   15.9330   -5.8410   10.3950 O   0  0  0  0  0  0  0  0  0  0  0  0
   17.2530   -4.1280   11.5980 O   0  0  0  0  0  0  0  0  0  0  0  0
   16.8050   -6.3880   12.7880 C   0  0  0  0  0  0  0  0  0  0  0  0
   17.4500   -5.9740   13.9450 C   0  0  0  0  0  0  0  0  0  0  0  0
   17.8250   -6.9220   14.8820 C   0  0  0  0  0  0  0  0  0  0  0  0
   16.6817   -9.7248   13.3416 H   0  0  0  0  0  0  0  0  0  0  0  0
   16.0433   -8.0405   11.6225 H   0  0  0  0  0  0  0  0  0  0  0  0
   17.8341   -9.0101   15.4233 H   0  0  0  0  0  0  0  0  0  0  0  0
   10.8234   -2.4155   11.8783 H   0  0  0  0  0  0  0  0  0  0  0  0
   10.9052   -0.6343   11.5651 H   0  0  0  0  0  0  0  0  0  0  0  0
   10.1706   -2.0478    7.9134 H   0  0  0  0  0  0  0  0  0  0  0  0
   12.3692   -1.0031    8.2513 H   0  0  0  0  0  0  0  0  0  0  0  0
   11.6255    0.1504    9.4221 H   0  0  0  0  0  0  0  0  0  0  0  0
   10.9415    1.4588    8.0417 H   0  0  0  0  0  0  0  0  0  0  0  0
   11.6823    0.9441    6.4884 H   0  0  0  0  0  0  0  0  0  0  0  0
   10.1179    1.8268    6.4884 H   0  0  0  0  0  0  0  0  0  0  0  0
    7.0373   -4.6620    6.9574 H   0  0  0  0  0  0  0  0  0  0  0  0
    9.0851    0.7784   10.8908 H   0  0  0  0  0  0  0  0  0  0  0  0
    9.9656    1.2614    9.4015 H   0  0  0  0  0  0  0  0  0  0  0  0
    8.1706    1.1936    9.4015 H   0  0  0  0  0  0  0  0  0  0  0  0
    8.1816   -0.9380    8.8578 H   0  0  0  0  0  0  0  0  0  0  0  0
    8.6062   -1.3184   11.3499 H   0  0  0  0  0  0  0  0  0  0  0  0
    9.0816   -2.6752   10.2394 H   0  0  0  0  0  0  0  0  0  0  0  0
    9.0373   -3.1838    7.8758 H   0  0  0  0  0  0  0  0  0  0  0  0
    5.9650   -3.4075    4.9383 H   0  0  0  0  0  0  0  0  0  0  0  0
    7.8061    0.7981    3.4702 H   0  0  0  0  0  0  0  0  0  0  0  0
   11.7804   -4.0992   12.4421 H   0  0  0  0  0  0  0  0  0  0  0  0
   11.7999   -4.3820   10.7111 H   0  0  0  0  0  0  0  0  0  0  0  0
   13.1564   -5.9860   12.5021 H   0  0  0  0  0  0  0  0  0  0  0  0
   13.7571   -5.7358   10.8411 H   0  0  0  0  0  0  0  0  0  0  0  0
   14.8798   -4.7058   13.4335 H   0  0  0  0  0  0  0  0  0  0  0  0
   15.3244   -2.6991   11.3152 H   0  0  0  0  0  0  0  0  0  0  0  0
   14.6268   -2.4207   12.9240 H   0  0  0  0  0  0  0  0  0  0  0  0
   17.6604   -4.9078   14.1153 H   0  0  0  0  0  0  0  0  0  0  0  0
   18.3467   -6.6096   15.7986 H   0  0  0  0  0  0  0  0  0  0  0  0
 21 20  1  0
 21 22  2  0
 20 19  2  0
 22 15  1  0
 19 18  1  0
 19 16  1  0
 18  8  1  0
 15 16  2  0
 15 14  1  0
 16 17  1  0
  8 17  2  0
  7 14  1  0
 14  5  1  0
  5  6  1  0
  5 12  1  0
  6  9  1  0
 12 11  1  0
 12 13  1  0
  9 10  1  0
  9  4  1  0
 23 10  2  0
 30 29  2  0
 10 24  1  0
 13  4  1  0
 24 25  1  0
 24 28  1  0
 25 26  1  0
 31 29  2  0
 29 27  1  0
 29 32  1  0
 26 27  1  0
 28 27  1  0
  2 32  1  0
  2  1  2  0
 32 33  2  0
  1  3  1  0
 33 34  1  0
  3 34  2  0
  1 35  1  0
  2 36  1  0
  3 37  1  0
  4 38  1  0
  4 39  1  0
  5 40  1  0
  6 41  1  0
  6 42  1  0
  7 43  1  0
  7 44  1  0
  7 45  1  0
  8 46  1  0
 11 47  1  0
 11 48  1  0
 11 49  1  0
 12 50  1  0
 13 51  1  0
 13 52  1  0
 17 53  1  0
 18 54  1  0
 21 55  1  0
 25 56  1  0
 25 57  1  0
 26 58  1  0
 26 59  1  0
 27 60  1  0
 28 61  1  0
 28 62  1  0
 33 63  1  0
 34 64  1  0
A    1
C33
A    2
C34
A    3
C32
A    4
C4
A    5
C7
A    6
C6
A    7
C9
A    8
C13
A    9
N5
A   10
C19
A   11
C1
A   12
C2
A   13
C3
A   14
N8
A   15
C10
A   16
C11
A   17
C12
A   18
N14
A   19
C15
A   20
N16
A   21
C17
A   22
N18
A   23
O20
A   24
N21
A   25
C22
A   26
C23
A   27
C24
A   28
C25
A   29
S26
A   30
O27
A   31
O28
A   32
C29
A   33
C30
A   34
C31
M  END
