5TQ8_7GS_A_4000
     RDKit          3D

 73 79  0  0  0  0  0  0  0  0999 V2000
    3.9170    4.5170    9.6010 C   0  0  0  0  0  0  0  0  0  0  0  0
    2.8060    4.7020    8.8370 C   0  0  0  0  0  0  0  0  0  0  0  0
    1.9120    3.6580    8.7140 C   0  0  0  0  0  0  0  0  0  0  0  0
    3.2260    2.2610   10.1650 C   0  0  0  0  0  0  0  0  0  0  0  0
    4.6650   -1.1830   10.6960 C   0  0  0  0  0  0  0  0  0  0  0  0
    3.5720   -2.9970   12.3260 C   0  0  0  0  0  0  0  0  0  0  0  0
    2.4420    0.3830   11.7100 C   0  0  0  0  0  0  0  0  0  0  0  0
    4.3620   -4.1890   12.1170 C   0  0  0  0  0  0  0  0  0  0  0  0
    7.0460   -6.3130   10.9990 C   0  0  0  0  0  0  0  0  0  0  0  0
    5.9390   -8.3540   11.9900 C   0  0  0  0  0  0  0  0  0  0  0  0
    4.9030   -6.2330   12.3430 C   0  0  0  0  0  0  0  0  0  0  0  0
    5.0540    3.2950   12.6480 C   0  0  0  0  0  0  0  0  0  0  0  0
    5.3950    3.1860   11.1610 C   0  0  0  0  0  0  0  0  0  0  0  0
    4.1390    3.3200   10.2720 C   0  0  0  0  0  0  0  0  0  0  0  0
    2.5620    5.8540    8.1070 O   0  0  0  0  0  0  0  0  0  0  0  0
    0.8460    3.8700    7.9350 F   0  0  0  0  0  0  0  0  0  0  0  0
    2.0960    2.4180    9.3730 C   0  0  0  0  0  0  0  0  0  0  0  0
    3.3510    0.8810   10.7580 C   0  0  0  0  0  0  0  0  0  0  0  0
    4.4040    0.1280   10.2880 C   0  0  0  0  0  0  0  0  0  0  0  0
    3.7350   -1.6710   11.6840 C   0  0  0  0  0  0  0  0  0  0  0  0
    2.5210   -2.9490   13.0680 N   0  0  0  0  0  0  0  0  0  0  0  0
    1.9770   -1.7120   13.0300 N   0  0  0  0  0  0  0  0  0  0  0  0
    2.6850   -0.9290   12.1400 C   0  0  0  0  0  0  0  0  0  0  0  0
    5.4520   -4.3410   11.4490 N   0  0  0  0  0  0  0  0  0  0  0  0
    5.8420   -5.6330   11.6040 C   0  0  0  0  0  0  0  0  0  0  0  0
    7.1700   -7.6530   11.6850 N   0  0  0  0  0  0  0  0  0  0  0  0
    4.8940   -7.6720   12.7890 C   0  0  0  0  0  0  0  0  0  0  0  0
    3.9970   -5.3390   12.6800 N   0  0  0  0  0  0  0  0  0  0  0  0
    8.3640   -8.1600   12.0410 C   0  0  0  0  0  0  0  0  0  0  0  0
    8.4290   -9.2020   12.6610 O   0  0  0  0  0  0  0  0  0  0  0  0
    9.6620   -7.6450   11.7430 C   0  0  0  0  0  0  0  0  0  0  0  0
    9.8940   -7.2530   10.4170 C   0  0  0  0  0  0  0  0  0  0  0  0
   11.0700   -6.7930   10.0320 N   0  0  0  0  0  0  0  0  0  0  0  0
   12.1110   -6.7280   10.8980 C   0  0  0  0  0  0  0  0  0  0  0  0
   11.8550   -7.1690   12.2230 C   0  0  0  0  0  0  0  0  0  0  0  0
   10.6740   -7.6270   12.5970 N   0  0  0  0  0  0  0  0  0  0  0  0
   13.3440   -6.2450   10.4620 N   0  0  0  0  0  0  0  0  0  0  0  0
   13.6440   -6.3050    8.9900 C   0  0  0  0  0  0  0  0  0  0  0  0
   14.7170   -5.3160    8.5200 C   0  0  0  0  0  0  0  0  0  0  0  0
   15.6640   -4.8830    9.6770 C   0  0  0  0  0  0  0  0  0  0  0  0
   15.8260   -6.0780   10.6460 C   0  0  0  0  0  0  0  0  0  0  0  0
   14.4820   -6.1520   11.3870 C   0  0  0  0  0  0  0  0  0  0  0  0
    4.6530    5.3298    9.6892 H   0  0  0  0  0  0  0  0  0  0  0  0
    5.4981   -1.7836   10.3021 H   0  0  0  0  0  0  0  0  0  0  0  0
    1.6004    0.9809   12.0898 H   0  0  0  0  0  0  0  0  0  0  0  0
    6.9009   -6.4515    9.9174 H   0  0  0  0  0  0  0  0  0  0  0  0
    7.9553   -5.7095   11.1366 H   0  0  0  0  0  0  0  0  0  0  0  0
    5.4797   -8.6286   11.0289 H   0  0  0  0  0  0  0  0  0  0  0  0
    6.2643   -9.1806   12.6387 H   0  0  0  0  0  0  0  0  0  0  0  0
    5.9327    3.0141   13.2472 H   0  0  0  0  0  0  0  0  0  0  0  0
    4.7655    4.3301   12.8831 H   0  0  0  0  0  0  0  0  0  0  0  0
    4.2186    2.6191   12.8831 H   0  0  0  0  0  0  0  0  0  0  0  0
    5.8609    2.2073   10.9736 H   0  0  0  0  0  0  0  0  0  0  0  0
    6.0821    4.0067   10.9072 H   0  0  0  0  0  0  0  0  0  0  0  0
    2.3812    6.7075    8.5749 H   0  0  0  0  0  0  0  0  0  0  0  0
    1.3655    1.6033    9.2609 H   0  0  0  0  0  0  0  0  0  0  0  0
    5.0785    0.5848    9.5488 H   0  0  0  0  0  0  0  0  0  0  0  0
    2.1481   -3.7398   13.6125 H   0  0  0  0  0  0  0  0  0  0  0  0
    5.9378   -3.6178   10.8995 H   0  0  0  0  0  0  0  0  0  0  0  0
    3.9101   -8.1252   12.5978 H   0  0  0  0  0  0  0  0  0  0  0  0
    5.0899   -7.7606   13.8678 H   0  0  0  0  0  0  0  0  0  0  0  0
    9.0791   -7.3304    9.6821 H   0  0  0  0  0  0  0  0  0  0  0  0
   12.6677   -7.1278   12.9631 H   0  0  0  0  0  0  0  0  0  0  0  0
   12.7152   -6.0911    8.4409 H   0  0  0  0  0  0  0  0  0  0  0  0
   14.0381   -7.3126    8.7914 H   0  0  0  0  0  0  0  0  0  0  0  0
   15.3168   -5.7926    7.7307 H   0  0  0  0  0  0  0  0  0  0  0  0
   14.2066   -4.4161    8.1463 H   0  0  0  0  0  0  0  0  0  0  0  0
   16.6453   -4.6001    9.2682 H   0  0  0  0  0  0  0  0  0  0  0  0
   15.2408   -4.0184   10.2093 H   0  0  0  0  0  0  0  0  0  0  0  0
   16.0157   -7.0077   10.0896 H   0  0  0  0  0  0  0  0  0  0  0  0
   16.6769   -5.9505   11.3314 H   0  0  0  0  0  0  0  0  0  0  0  0
   14.3660   -5.2474   12.0019 H   0  0  0  0  0  0  0  0  0  0  0  0
   14.4879   -7.0596   12.0084 H   0  0  0  0  0  0  0  0  0  0  0  0
 16  3  1  0
 15  2  1  0
 39 38  1  0
 39 40  1  0
  3  2  1  0
  3 17  2  0
  2  1  2  0
 38 37  1  0
 17  4  1  0
  1 14  1  0
 40 41  1  0
 33 32  2  0
 33 34  1  0
  4 14  2  0
  4 18  1  0
 14 13  1  0
 19  5  2  0
 19 18  1  0
 32 31  1  0
 37 34  1  0
 37 42  1  0
 41 42  1  0
  5 20  1  0
 18  7  2  0
 34 35  2  0
  9 25  1  0
  9 26  1  0
 13 12  1  0
 24 25  1  0
 24  8  1  0
 25 11  2  0
 20 23  1  0
 20  6  2  0
 26 10  1  0
 26 29  1  0
  7 23  1  0
 31 29  1  0
 31 36  2  0
 10 27  1  0
 29 30  2  0
  8  6  1  0
  8 28  2  0
 23 22  2  0
 35 36  1  0
  6 21  1  0
 11 28  1  0
 11 27  1  0
 22 21  1  0
  1 43  1  0
  5 44  1  0
  7 45  1  0
  9 46  1  0
  9 47  1  0
 10 48  1  0
 10 49  1  0
 12 50  1  0
 12 51  1  0
 12 52  1  0
 13 53  1  0
 13 54  1  0
 15 55  1  0
 17 56  1  0
 19 57  1  0
 21 58  1  0
 24 59  1  0
 27 60  1  0
 27 61  1  0
 32 62  1  0
 35 63  1  0
 38 64  1  0
 38 65  1  0
 39 66  1  0
 39 67  1  0
 40 68  1  0
 40 69  1  0
 41 70  1  0
 41 71  1  0
 42 72  1  0
 42 73  1  0
A    1
C4
A    2
C5
A    3
C7
A    4
C10
A    5
C13
A    6
C15
A    7
C20
A    8
C21
A    9
C24
A   10
C26
A   11
C28
A   12
C1
A   13
C2
A   14
C3
A   15
O6
A   16
F8
A   17
C9
A   18
C11
A   19
C12
A   20
C14
A   21
N16
A   22
N17
A   23
C19
A   24
N22
A   25
C23
A   26
N25
A   27
C27
A   28
N29
A   29
C31
A   30
O32
A   31
C33
A   32
C34
A   33
N35
A   34
C36
A   35
C37
A   36
N38
A   37
N39
A   38
C40
A   39
C41
A   40
C42
A   41
C43
A   42
C44
M  END
