5TQG_7KS_H_301
     RDKit          3D

 82 87  0  0  0  0  0  0  0  0999 V2000
    3.6070   38.6060   21.9550 C   0  0  0  0  0  0  0  0  0  0  0  0
    8.0440   39.5060   19.4650 C   0  0  0  0  0  0  0  0  0  0  0  0
    5.7130   40.0820   20.8980 C   0  0  0  0  0  0  0  0  0  0  0  0
    9.1310   38.9080   20.3000 C   0  0  0  0  0  0  0  0  0  0  0  0
    9.4780   39.7120   19.0950 C   0  0  0  0  0  0  0  0  0  0  0  0
    6.2720   40.2320   25.6320 C   0  0  0  0  0  0  0  0  0  0  0  0
    2.7310   35.3090   24.6150 C   0  0  0  0  0  0  0  0  0  0  0  0
    4.6350   39.7210   20.0950 C   0  0  0  0  0  0  0  0  0  0  0  0
    3.5900   38.9830   20.6200 C   0  0  0  0  0  0  0  0  0  0  0  0
    8.3780   35.8050   28.0980 C   0  0  0  0  0  0  0  0  0  0  0  0
    1.6400   36.2820   24.1310 C   0  0  0  0  0  0  0  0  0  0  0  0
    8.8410   34.9870   29.1530 C   0  0  0  0  0  0  0  0  0  0  0  0
    7.2310   37.3900   25.8640 C   0  0  0  0  0  0  0  0  0  0  0  0
    5.7850   37.0620   26.2090 C   0  0  0  0  0  0  0  0  0  0  0  0
    4.9770   36.3630   25.3090 C   0  0  0  0  0  0  0  0  0  0  0  0
    3.6730   35.9680   25.6330 C   0  0  0  0  0  0  0  0  0  0  0  0
    3.2120   36.2680   26.9260 C   0  0  0  0  0  0  0  0  0  0  0  0
    4.0080   36.9790   27.8290 C   0  0  0  0  0  0  0  0  0  0  0  0
    5.2750   37.3760   27.4590 C   0  0  0  0  0  0  0  0  0  0  0  0
    6.8600   40.1510   23.2040 C   0  0  0  0  0  0  0  0  0  0  0  0
    6.8370   39.4710   24.5170 N   0  0  0  0  0  0  0  0  0  0  0  0
    5.7450   39.7410   22.2650 C   0  0  0  0  0  0  0  0  0  0  0  0
    4.6670   39.0050   22.7650 C   0  0  0  0  0  0  0  0  0  0  0  0
    2.6160   37.7320   22.4620 N   0  0  0  0  0  0  0  0  0  0  0  0
    7.0480   40.8870   20.0250 S   0  0  0  0  0  0  0  0  0  0  0  0
    6.5000   41.5300   18.8600 O   0  0  0  0  0  0  0  0  0  0  0  0
    7.8420   41.6750   20.9290 O   0  0  0  0  0  0  0  0  0  0  0  0
    2.1860   37.6390   23.7400 C   0  0  0  0  0  0  0  0  0  0  0  0
    2.2950   38.5500   24.5640 O   0  0  0  0  0  0  0  0  0  0  0  0
    8.0220   36.1770   25.7350 N   0  0  0  0  0  0  0  0  0  0  0  0
    8.5130   35.4070   26.7830 C   0  0  0  0  0  0  0  0  0  0  0  0
    9.1430   34.2030   26.4790 C   0  0  0  0  0  0  0  0  0  0  0  0
    9.5740   33.3700   27.4680 C   0  0  0  0  0  0  0  0  0  0  0  0
    9.4460   33.7260   28.8370 C   0  0  0  0  0  0  0  0  0  0  0  0
    9.9190   32.9130   29.9380 C   0  0  0  0  0  0  0  0  0  0  0  0
    9.8140   33.3160   31.2220 N   0  0  0  0  0  0  0  0  0  0  0  0
    9.2370   34.4890   31.5020 C   0  0  0  0  0  0  0  0  0  0  0  0
    8.7390   35.3590   30.5180 C   0  0  0  0  0  0  0  0  0  0  0  0
   10.4480   31.6880   29.7480 N   0  0  0  0  0  0  0  0  0  0  0  0
    7.2690   38.1890   24.5560 C   0  0  0  0  0  0  0  0  0  0  0  0
    7.7250   37.6510   23.5630 O   0  0  0  0  0  0  0  0  0  0  0  0
    1.9670   35.7840   27.2410 O   0  0  0  0  0  0  0  0  0  0  0  0
    8.1380   36.5360   30.8570 F   0  0  0  0  0  0  0  0  0  0  0  0
    1.5630   35.8440   28.6160 C   0  0  0  0  0  0  0  0  0  0  0  0
    0.2050   35.1360   28.6980 C   0  0  0  0  0  0  0  0  0  0  0  0
   -0.6790   35.7170   27.8440 F   0  0  0  0  0  0  0  0  0  0  0  0
   -0.3140   35.3950   29.9280 F   0  0  0  0  0  0  0  0  0  0  0  0
    3.4160   34.6400   23.4050 C   0  0  0  0  0  0  0  0  0  0  0  0
    7.1478   39.1029   18.9707 H   0  0  0  0  0  0  0  0  0  0  0  0
    9.2893   37.8195   20.2988 H   0  0  0  0  0  0  0  0  0  0  0  0
    9.4034   38.9469   21.3650 H   0  0  0  0  0  0  0  0  0  0  0  0
    9.8925   39.2168   18.2045 H   0  0  0  0  0  0  0  0  0  0  0  0
   10.1125   40.5898   18.9029 H   0  0  0  0  0  0  0  0  0  0  0  0
    6.6015   39.7882   26.5831 H   0  0  0  0  0  0  0  0  0  0  0  0
    6.6160   41.2753   25.5755 H   0  0  0  0  0  0  0  0  0  0  0  0
    5.1738   40.2045   25.5755 H   0  0  0  0  0  0  0  0  0  0  0  0
    2.2740   34.4871   25.1855 H   0  0  0  0  0  0  0  0  0  0  0  0
    4.6142   40.0242   19.0378 H   0  0  0  0  0  0  0  0  0  0  0  0
    2.7443   38.6946   19.9784 H   0  0  0  0  0  0  0  0  0  0  0  0
    7.9041   36.7709   28.3273 H   0  0  0  0  0  0  0  0  0  0  0  0
    0.9086   36.4190   24.9411 H   0  0  0  0  0  0  0  0  0  0  0  0
    1.1821   35.8414   23.2331 H   0  0  0  0  0  0  0  0  0  0  0  0
    7.6641   37.9910   26.6771 H   0  0  0  0  0  0  0  0  0  0  0  0
    5.3774   36.1151   24.3149 H   0  0  0  0  0  0  0  0  0  0  0  0
    3.6245   37.2207   28.8312 H   0  0  0  0  0  0  0  0  0  0  0  0
    5.8908   37.9507   28.1665 H   0  0  0  0  0  0  0  0  0  0  0  0
    7.8200   39.9250   22.7168 H   0  0  0  0  0  0  0  0  0  0  0  0
    6.7215   41.2236   23.4047 H   0  0  0  0  0  0  0  0  0  0  0  0
    4.6557   38.7327   23.8307 H   0  0  0  0  0  0  0  0  0  0  0  0
    2.1738   37.0969   21.7823 H   0  0  0  0  0  0  0  0  0  0  0  0
    8.2384   35.8590   24.7795 H   0  0  0  0  0  0  0  0  0  0  0  0
    9.2948   33.9204   25.4268 H   0  0  0  0  0  0  0  0  0  0  0  0
   10.0291   32.4048   27.2011 H   0  0  0  0  0  0  0  0  0  0  0  0
    9.1477   34.7881   32.5568 H   0  0  0  0  0  0  0  0  0  0  0  0
   10.7000   31.1045   30.5585 H   0  0  0  0  0  0  0  0  0  0  0  0
   10.6003   31.3354   28.7923 H   0  0  0  0  0  0  0  0  0  0  0  0
    2.2991   35.3304   29.2518 H   0  0  0  0  0  0  0  0  0  0  0  0
    1.4929   36.8843   28.9666 H   0  0  0  0  0  0  0  0  0  0  0  0
    0.3498   34.0681   28.4775 H   0  0  0  0  0  0  0  0  0  0  0  0
    4.1606   33.9128   23.7610 H   0  0  0  0  0  0  0  0  0  0  0  0
    2.6603   34.1226   22.7957 H   0  0  0  0  0  0  0  0  0  0  0  0
    3.9154   35.4077   22.7957 H   0  0  0  0  0  0  0  0  0  0  0  0
 26 25  2  0
  5  2  1  0
  5  4  1  0
  2 25  1  0
  2  4  1  0
 25  3  1  0
 25 27  2  0
  8  9  2  0
  8  3  1  0
  9  1  1  0
  3 22  2  0
  1 24  1  0
  1 23  2  0
 22 23  1  0
 22 20  1  0
 24 28  1  0
 20 21  1  0
 48  7  1  0
 41 40  2  0
 28 11  1  0
 28 29  2  0
 11  7  1  0
 21 40  1  0
 21  6  1  0
 40 13  1  0
  7 16  1  0
 15 16  2  0
 15 14  1  0
 16 17  1  0
 30 13  1  0
 30 31  1  0
 13 14  1  0
 14 19  2  0
 32 31  1  0
 32 33  2  0
 31 10  2  0
 17 42  1  0
 17 18  2  0
 42 44  1  0
 19 18  1  0
 33 34  1  0
 46 45  1  0
 10 12  1  0
 44 45  1  0
 45 47  1  0
 34 12  2  0
 34 35  1  0
 12 38  1  0
 39 35  1  0
 35 36  2  0
 38 43  1  0
 38 37  2  0
 36 37  1  0
  2 49  1  0
  4 50  1  0
  4 51  1  0
  5 52  1  0
  5 53  1  0
  6 54  1  0
  6 55  1  0
  6 56  1  0
  7 57  1  0
  8 58  1  0
  9 59  1  0
 10 60  1  0
 11 61  1  0
 11 62  1  0
 13 63  1  0
 15 64  1  0
 18 65  1  0
 19 66  1  0
 20 67  1  0
 20 68  1  0
 23 69  1  0
 24 70  1  0
 30 71  1  0
 32 72  1  0
 33 73  1  0
 37 74  1  0
 39 75  1  0
 39 76  1  0
 44 77  1  0
 44 78  1  0
 45 79  1  0
 48 80  1  0
 48 81  1  0
 48 82  1  0
A    1
C13
A    2
C18
A    3
C16
A    4
C19
A    5
C20
A    6
C23
A    7
C24
A    8
C11
A    9
C12
A   10
C34
A   11
C27
A   12
C33
A   13
C1
A   14
C2
A   15
C3
A   16
C4
A   17
C5
A   18
C6
A   19
C7
A   20
C8
A   21
N9
A   22
C10
A   23
C14
A   24
N15
A   25
S17
A   26
O21
A   27
O22
A   28
C25
A   29
O26
A   30
N28
A   31
C29
A   32
C30
A   33
C31
A   34
C32
A   35
C35
A   36
N36
A   37
C37
A   38
C38
A   39
N39
A   40
C40
A   41
O41
A   42
O42
A   43
F43
A   44
C44
A   45
C45
A   46
F46
A   47
F47
A   48
C48
M  END
