5TR6_7KG_A_701
     RDKit          3D

 46 49  0  0  0  0  0  0  0  0999 V2000
   -1.1880    0.2530   14.7710 C   0  0  0  0  0  0  0  0  0  0  0  0
    0.0850    0.0120   14.2070 C   0  0  0  0  0  0  0  0  0  0  0  0
   -2.3690   -0.6310   14.5290 C   0  0  0  0  0  0  0  0  0  0  0  0
   -1.2170   -4.9490   11.0790 C   0  0  0  0  0  0  0  0  0  0  0  0
    1.0630   -5.7490   11.8900 C   0  0  0  0  0  0  0  0  0  0  0  0
   -0.5490   -4.6280   13.5260 C   0  0  0  0  0  0  0  0  0  0  0  0
   -4.3720   -2.4520   13.9000 C   0  0  0  0  0  0  0  0  0  0  0  0
   -4.6910   -1.3420   14.6480 C   0  0  0  0  0  0  0  0  0  0  0  0
    0.7950    3.0490   16.0220 C   0  0  0  0  0  0  0  0  0  0  0  0
    0.2070    1.8510   15.4060 N   0  0  0  0  0  0  0  0  0  0  0  0
   -1.0720    1.4110   15.5080 C   0  0  0  0  0  0  0  0  0  0  0  0
    0.9030    0.9580   14.5820 N   0  0  0  0  0  0  0  0  0  0  0  0
   -2.1320   -1.7280   13.7920 N   0  0  0  0  0  0  0  0  0  0  0  0
   -3.0510   -2.6390   13.4610 C   0  0  0  0  0  0  0  0  0  0  0  0
   -2.7150   -3.7580   12.6920 N   0  0  0  0  0  0  0  0  0  0  0  0
   -1.3070   -4.0270   12.3190 C   0  0  0  0  0  0  0  0  0  0  0  0
    0.2650   -5.1720   10.7030 C   0  0  0  0  0  0  0  0  0  0  0  0
    0.9340   -4.8550   13.1460 C   0  0  0  0  0  0  0  0  0  0  0  0
   -1.1730   -5.8900   13.9810 N   0  0  0  0  0  0  0  0  0  0  0  0
   -5.3490   -3.3310   13.6050 F   0  0  0  0  0  0  0  0  0  0  0  0
   -5.9880   -0.8880   15.2570 C   0  0  0  0  0  0  0  0  0  0  0  0
   -5.6680    0.3400   15.9800 N   0  0  0  0  0  0  0  0  0  0  0  0
   -4.3770    0.6320   15.8200 C   0  0  0  0  0  0  0  0  0  0  0  0
   -3.8740    1.6050   16.3460 O   0  0  0  0  0  0  0  0  0  0  0  0
   -3.6960   -0.3890   14.9930 C   0  0  0  0  0  0  0  0  0  0  0  0
    0.3450   -0.8362   13.5566 H   0  0  0  0  0  0  0  0  0  0  0  0
   -1.7418   -4.4785   10.2345 H   0  0  0  0  0  0  0  0  0  0  0  0
   -1.6841   -5.9177   11.3103 H   0  0  0  0  0  0  0  0  0  0  0  0
    0.6795   -6.7529   12.1246 H   0  0  0  0  0  0  0  0  0  0  0  0
    2.1244   -5.7929   11.6044 H   0  0  0  0  0  0  0  0  0  0  0  0
   -0.6031   -3.9161   14.3628 H   0  0  0  0  0  0  0  0  0  0  0  0
    0.7502    2.9577   17.1173 H   0  0  0  0  0  0  0  0  0  0  0  0
    1.8437    3.1472   15.7049 H   0  0  0  0  0  0  0  0  0  0  0  0
    0.2312    3.9387   15.7049 H   0  0  0  0  0  0  0  0  0  0  0  0
   -1.8772    1.8951   16.0802 H   0  0  0  0  0  0  0  0  0  0  0  0
   -3.4557   -4.4028   12.3813 H   0  0  0  0  0  0  0  0  0  0  0  0
   -0.8295   -3.0747   12.0449 H   0  0  0  0  0  0  0  0  0  0  0  0
    0.3187   -5.8756    9.8592 H   0  0  0  0  0  0  0  0  0  0  0  0
    0.7037   -4.2013   10.4285 H   0  0  0  0  0  0  0  0  0  0  0  0
    1.4486   -5.3426   13.9871 H   0  0  0  0  0  0  0  0  0  0  0  0
    1.3886   -3.8781   12.9245 H   0  0  0  0  0  0  0  0  0  0  0  0
   -1.1854   -5.9151   15.0106 H   0  0  0  0  0  0  0  0  0  0  0  0
   -2.1379   -5.9440   13.6246 H   0  0  0  0  0  0  0  0  0  0  0  0
   -6.7330   -0.6897   14.4724 H   0  0  0  0  0  0  0  0  0  0  0  0
   -6.4185   -1.6528   15.9201 H   0  0  0  0  0  0  0  0  0  0  0  0
   -6.3381    0.8961   16.5301 H   0  0  0  0  0  0  0  0  0  0  0  0
 17  4  1  0
 17  5  1  0
  4 16  1  0
  5 18  1  0
 16 15  1  0
 16  6  1  0
 15 14  1  0
 18  6  1  0
 14 13  1  0
 14  7  2  0
  6 19  1  0
 20  7  1  0
 13  3  2  0
  7  8  1  0
  2 12  2  0
  2  1  1  0
  3  1  1  0
  3 25  1  0
 12 10  1  0
  8 25  2  0
  8 21  1  0
  1 11  2  0
 25 23  1  0
 21 22  1  0
 10 11  1  0
 10  9  1  0
 23 22  1  0
 23 24  2  0
  2 26  1  0
  4 27  1  0
  4 28  1  0
  5 29  1  0
  5 30  1  0
  6 31  1  0
  9 32  1  0
  9 33  1  0
  9 34  1  0
 11 35  1  0
 15 36  1  0
 16 37  1  0
 17 38  1  0
 17 39  1  0
 18 40  1  0
 18 41  1  0
 19 42  1  0
 19 43  1  0
 21 44  1  0
 21 45  1  0
 22 46  1  0
A    1
C4
A    2
C5
A    3
C7
A    4
C13
A    5
C15
A    6
C17
A    7
C20
A    8
C22
A    9
C1
A   10
N2
A   11
C3
A   12
N6
A   13
N8
A   14
C9
A   15
N10
A   16
C11
A   17
C14
A   18
C16
A   19
N19
A   20
F21
A   21
C23
A   22
N24
A   23
C25
A   24
O26
A   25
C27
M  END
