5TRH_7HL_A_602
     RDKit          3D

 43 45  0  0  0  0  0  0  0  0999 V2000
   21.8990    5.5610   10.2320 C   0  0  0  0  0  0  0  0  0  0  0  0
   24.2780    7.2850   13.9110 C   0  0  0  0  0  0  0  0  0  0  0  0
   20.7640    5.0440   10.8440 C   0  0  0  0  0  0  0  0  0  0  0  0
   19.5760    4.9990   10.1260 C   0  0  0  0  0  0  0  0  0  0  0  0
   24.6620    7.1770   12.5830 C   0  0  0  0  0  0  0  0  0  0  0  0
   23.8350    8.5200   14.3700 C   0  0  0  0  0  0  0  0  0  0  0  0
   21.8450    5.9990    8.9220 C   0  0  0  0  0  0  0  0  0  0  0  0
   19.5340    5.4270    8.8140 C   0  0  0  0  0  0  0  0  0  0  0  0
   24.5590    8.2530   11.7170 C   0  0  0  0  0  0  0  0  0  0  0  0
   24.1960    6.0550   14.7690 C   0  0  0  0  0  0  0  0  0  0  0  0
   22.7760    2.2640   16.3490 C   0  0  0  0  0  0  0  0  0  0  0  0
   24.0680    9.4520   12.1890 C   0  0  0  0  0  0  0  0  0  0  0  0
   23.8270   10.7760   11.0780 Cl  0  0  0  0  0  0  0  0  0  0  0  0
   22.1100    3.2110   13.8210 C   0  0  0  0  0  0  0  0  0  0  0  0
   22.9130    3.9800   14.6790 C   0  0  0  0  0  0  0  0  0  0  0  0
   21.5860    1.9840   14.2680 C   0  0  0  0  0  0  0  0  0  0  0  0
   21.8310    3.6690   12.5060 N   0  0  0  0  0  0  0  0  0  0  0  0
   23.0950    5.2800   14.2720 O   0  0  0  0  0  0  0  0  0  0  0  0
   23.2780    3.4850   15.9240 C   0  0  0  0  0  0  0  0  0  0  0  0
   21.9240    1.5270   15.5410 C   0  0  0  0  0  0  0  0  0  0  0  0
   20.6550    1.1900   13.4100 C   0  0  0  0  0  0  0  0  0  0  0  0
   20.8070    4.5090   12.2320 C   0  0  0  0  0  0  0  0  0  0  0  0
   21.2670    0.3930   12.5800 O   0  0  0  0  0  0  0  0  0  0  0  0
   19.4290    1.3190   13.4520 O   0  0  0  0  0  0  0  0  0  0  0  0
   19.9620    4.8360   13.0560 O   0  0  0  0  0  0  0  0  0  0  0  0
   23.7170    9.6040   13.5120 C   0  0  0  0  0  0  0  0  0  0  0  0
   20.6630    5.9350    8.2150 C   0  0  0  0  0  0  0  0  0  0  0  0
   22.8439    5.6220   10.7918 H   0  0  0  0  0  0  0  0  0  0  0  0
   18.6619    4.6196   10.6061 H   0  0  0  0  0  0  0  0  0  0  0  0
   25.0555    6.2196   12.2106 H   0  0  0  0  0  0  0  0  0  0  0  0
   23.5735    8.6400   15.4317 H   0  0  0  0  0  0  0  0  0  0  0  0
   22.7493    6.4005    8.4413 H   0  0  0  0  0  0  0  0  0  0  0  0
   18.5944    5.3615    8.2459 H   0  0  0  0  0  0  0  0  0  0  0  0
   24.8652    8.1523   10.6653 H   0  0  0  0  0  0  0  0  0  0  0  0
   25.1298    5.4782   14.6955 H   0  0  0  0  0  0  0  0  0  0  0  0
   24.0495    6.3187   15.8268 H   0  0  0  0  0  0  0  0  0  0  0  0
   23.0572    1.8757   17.3390 H   0  0  0  0  0  0  0  0  0  0  0  0
   22.4309    3.3495   11.7320 H   0  0  0  0  0  0  0  0  0  0  0  0
   23.9608    4.0576   16.5689 H   0  0  0  0  0  0  0  0  0  0  0  0
   21.5118    0.5750   15.9068 H   0  0  0  0  0  0  0  0  0  0  0  0
   21.8320   -0.3428   12.9258 H   0  0  0  0  0  0  0  0  0  0  0  0
   23.3482   10.5715   13.8834 H   0  0  0  0  0  0  0  0  0  0  0  0
   20.6231    6.2894    7.1744 H   0  0  0  0  0  0  0  0  0  0  0  0
 27  8  2  0
 27  7  1  0
  8  4  1  0
  7  1  2  0
  4  3  2  0
  1  3  1  0
  3 22  1  0
 13 12  1  0
  9 12  1  0
  9  5  2  0
 12 26  2  0
 22 17  1  0
 22 25  2  0
 17 14  1  0
 23 21  1  0
  5  2  1  0
 21 24  2  0
 21 16  1  0
 26  6  1  0
 14 16  2  0
 14 15  1  0
  2  6  2  0
  2 10  1  0
 16 20  1  0
 18 15  1  0
 18 10  1  0
 15 19  2  0
 20 11  2  0
 19 11  1  0
  1 28  1  0
  4 29  1  0
  5 30  1  0
  6 31  1  0
  7 32  1  0
  8 33  1  0
  9 34  1  0
 10 35  1  0
 10 36  1  0
 11 37  1  0
 17 38  1  0
 19 39  1  0
 20 40  1  0
 23 41  1  0
 26 42  1  0
 27 43  1  0
A    1
C18
A    2
C17
A    3
C15
A    4
C19
A    5
C20
A    6
C21
A    7
C22
A    8
C23
A    9
C24
A   10
C11
A   11
C12
A   12
C27
A   13
CL1
A   14
C2
A   15
C3
A   16
C4
A   17
N5
A   18
O6
A   19
C7
A   20
C8
A   21
C9
A   22
C10
A   23
O13
A   24
O14
A   25
O16
A   26
C25
A   27
C26
M  END
