5TRJ_7HO_A_602
     RDKit          3D

 50 52  0  0  0  0  0  0  0  0999 V2000
   24.1760    7.4280   14.7700 C   0  0  0  0  0  0  0  0  0  0  0  0
   22.9090   10.4640   12.9240 C   0  0  0  0  0  0  0  0  0  0  0  0
   23.6630   10.4040   11.7740 C   0  0  0  0  0  0  0  0  0  0  0  0
   24.7000    9.5060   11.6520 C   0  0  0  0  0  0  0  0  0  0  0  0
   24.9370    8.6060   12.6770 C   0  0  0  0  0  0  0  0  0  0  0  0
   23.1630    9.5660   13.9440 C   0  0  0  0  0  0  0  0  0  0  0  0
   21.0830    4.4880   12.4400 C   0  0  0  0  0  0  0  0  0  0  0  0
   20.8110    4.8230   10.9990 C   0  0  0  0  0  0  0  0  0  0  0  0
   19.4960    4.6330   10.5630 C   0  0  0  0  0  0  0  0  0  0  0  0
   19.1170    4.9740    9.2740 C   0  0  0  0  0  0  0  0  0  0  0  0
   21.7330    5.3510   10.0820 C   0  0  0  0  0  0  0  0  0  0  0  0
   23.2360   11.4090   10.4180 Cl  0  0  0  0  0  0  0  0  0  0  0  0
   23.1360    2.5890   16.0130 C   0  0  0  0  0  0  0  0  0  0  0  0
   22.5790    2.8270   14.7540 C   0  0  0  0  0  0  0  0  0  0  0  0
   22.8150    4.0680   14.1250 C   0  0  0  0  0  0  0  0  0  0  0  0
   23.5720    5.0520   14.7890 C   0  0  0  0  0  0  0  0  0  0  0  0
   24.1130    4.7900   16.0420 C   0  0  0  0  0  0  0  0  0  0  0  0
   23.9090    3.5550   16.6360 C   0  0  0  0  0  0  0  0  0  0  0  0
   21.7690    1.7390   14.1190 C   0  0  0  0  0  0  0  0  0  0  0  0
   22.2920    1.2340   13.0340 O   0  0  0  0  0  0  0  0  0  0  0  0
   20.6940    1.3720   14.5820 O   0  0  0  0  0  0  0  0  0  0  0  0
   22.3780    4.2800   12.7840 N   0  0  0  0  0  0  0  0  0  0  0  0
   23.7340    6.2280   14.0880 O   0  0  0  0  0  0  0  0  0  0  0  0
   24.1390    8.5890   13.8140 C   0  0  0  0  0  0  0  0  0  0  0  0
   20.1660    4.4120   13.2500 O   0  0  0  0  0  0  0  0  0  0  0  0
   20.0270    5.5330    8.4060 C   0  0  0  0  0  0  0  0  0  0  0  0
   21.3310    5.7490    8.8090 C   0  0  0  0  0  0  0  0  0  0  0  0
   23.0540    5.2910   10.4440 O   0  0  0  0  0  0  0  0  0  0  0  0
   23.9460    4.5620    9.5880 C   0  0  0  0  0  0  0  0  0  0  0  0
   25.0660    5.4960    9.2340 C   0  0  0  0  0  0  0  0  0  0  0  0
   25.0030    6.6370    9.8710 O   0  0  0  0  0  0  0  0  0  0  0  0
   25.8820    5.2520    8.3850 O   0  0  0  0  0  0  0  0  0  0  0  0
   25.2040    7.2854   15.1344 H   0  0  0  0  0  0  0  0  0  0  0  0
   23.5108    7.6324   15.6219 H   0  0  0  0  0  0  0  0  0  0  0  0
   22.1142   11.2171   13.0301 H   0  0  0  0  0  0  0  0  0  0  0  0
   25.3319    9.5038   10.7516 H   0  0  0  0  0  0  0  0  0  0  0  0
   25.7703    7.8932   12.5897 H   0  0  0  0  0  0  0  0  0  0  0  0
   22.5807    9.6274   14.8752 H   0  0  0  0  0  0  0  0  0  0  0  0
   18.7521    4.2071   11.2524 H   0  0  0  0  0  0  0  0  0  0  0  0
   18.0831    4.7968    8.9430 H   0  0  0  0  0  0  0  0  0  0  0  0
   22.9591    1.6258   16.5140 H   0  0  0  0  0  0  0  0  0  0  0  0
   24.7016    5.5610   16.5608 H   0  0  0  0  0  0  0  0  0  0  0  0
   24.3659    3.3392   17.6131 H   0  0  0  0  0  0  0  0  0  0  0  0
   23.0026    0.5479   13.1000 H   0  0  0  0  0  0  0  0  0  0  0  0
   23.0854    4.2748   12.0353 H   0  0  0  0  0  0  0  0  0  0  0  0
   19.7152    5.8088    7.3878 H   0  0  0  0  0  0  0  0  0  0  0  0
   22.0474    6.2324    8.1285 H   0  0  0  0  0  0  0  0  0  0  0  0
   23.4190    4.2403    8.6776 H   0  0  0  0  0  0  0  0  0  0  0  0
   24.3271    3.6607   10.0904 H   0  0  0  0  0  0  0  0  0  0  0  0
   25.0022    6.6519   10.8609 H   0  0  0  0  0  0  0  0  0  0  0  0
 26 27  2  0
 26 10  1  0
 32 30  2  0
 27 11  1  0
 30 29  1  0
 30 31  1  0
 10  9  2  0
 29 28  1  0
 11 28  1  0
 11  8  2  0
 12  3  1  0
  9  8  1  0
  8  7  1  0
  4  3  1  0
  4  5  2  0
  3  2  2  0
  7 22  1  0
  7 25  2  0
  5 24  1  0
 22 15  1  0
  2  6  1  0
 20 19  1  0
 24  6  2  0
 24  1  1  0
 19 21  2  0
 19 14  1  0
 23  1  1  0
 23 16  1  0
 15 14  1  0
 15 16  2  0
 14 13  2  0
 16 17  1  0
 13 18  1  0
 17 18  2  0
  1 33  1  0
  1 34  1  0
  2 35  1  0
  4 36  1  0
  5 37  1  0
  6 38  1  0
  9 39  1  0
 10 40  1  0
 13 41  1  0
 17 42  1  0
 18 43  1  0
 20 44  1  0
 22 45  1  0
 26 46  1  0
 27 47  1  0
 29 48  1  0
 29 49  1  0
 31 50  1  0
A    1
C13
A    2
C18
A    3
C17
A    4
C16
A    5
C15
A    6
C19
A    7
C20
A    8
C21
A    9
C23
A   10
C24
A   11
C27
A   12
CL1
A   13
C2
A   14
C3
A   15
C4
A   16
C5
A   17
C6
A   18
C7
A   19
C8
A   20
O9
A   21
O10
A   22
N11
A   23
O12
A   24
C14
A   25
O22
A   26
C25
A   27
C26
A   28
O28
A   29
C29
A   30
C30
A   31
O31
A   32
O32
M  END
