5TUR_7LK_A_401
     RDKit          3D

 43 46  0  0  0  0  0  0  0  0999 V2000
   25.8820   47.6780    3.2780 C   0  0  0  0  0  0  0  0  0  0  0  0
   26.3760   48.9270    3.6150 C   0  0  0  0  0  0  0  0  0  0  0  0
   25.6590   47.3710    1.9460 C   0  0  0  0  0  0  0  0  0  0  0  0
   26.1900   49.3850   -0.8100 C   0  0  0  0  0  0  0  0  0  0  0  0
   25.7890   48.2150   -0.3240 C   0  0  0  0  0  0  0  0  0  0  0  0
   25.9170   48.2700    1.0000 C   0  0  0  0  0  0  0  0  0  0  0  0
   26.3910   49.4770    1.3190 C   0  0  0  0  0  0  0  0  0  0  0  0
   25.1560   46.0940    1.6050 C   0  0  0  0  0  0  0  0  0  0  0  0
   26.1750   49.6570   -2.1220 C   0  0  0  0  0  0  0  0  0  0  0  0
   26.5540   50.8960   -2.6310 C   0  0  0  0  0  0  0  0  0  0  0  0
   26.5190   51.1530   -3.9910 C   0  0  0  0  0  0  0  0  0  0  0  0
   26.1030   50.1630   -4.8690 C   0  0  0  0  0  0  0  0  0  0  0  0
   25.7110   48.9220   -4.3790 C   0  0  0  0  0  0  0  0  0  0  0  0
   25.7490   48.6730   -3.0100 C   0  0  0  0  0  0  0  0  0  0  0  0
   26.4560   51.7520   -6.7080 C   0  0  0  0  0  0  0  0  0  0  0  0
   25.5650   52.1150   -7.8850 C   0  0  0  0  0  0  0  0  0  0  0  0
   25.1860   49.8740   -8.3880 C   0  0  0  0  0  0  0  0  0  0  0  0
   26.0630   49.4110   -7.2290 C   0  0  0  0  0  0  0  0  0  0  0  0
   27.0900   51.5560    0.4120 C   0  0  0  0  0  0  0  0  0  0  0  0
   26.6260   49.8290    2.5900 N   0  0  0  0  0  0  0  0  0  0  0  0
   26.5600   50.1750    0.2070 N   0  0  0  0  0  0  0  0  0  0  0  0
   24.7570   45.0790    1.3430 N   0  0  0  0  0  0  0  0  0  0  0  0
   26.0640   50.4380   -6.1790 N   0  0  0  0  0  0  0  0  0  0  0  0
   25.6390   51.1430   -8.9950 N   0  0  0  0  0  0  0  0  0  0  0  0
   25.6685   46.9360    4.0615 H   0  0  0  0  0  0  0  0  0  0  0  0
   26.5648   49.1965    4.6646 H   0  0  0  0  0  0  0  0  0  0  0  0
   25.4195   47.3591   -0.9079 H   0  0  0  0  0  0  0  0  0  0  0  0
   26.8872   51.6848   -1.9405 H   0  0  0  0  0  0  0  0  0  0  0  0
   26.8201   52.1392   -4.3741 H   0  0  0  0  0  0  0  0  0  0  0  0
   25.3714   48.1383   -5.0722 H   0  0  0  0  0  0  0  0  0  0  0  0
   25.4396   47.6897   -2.6262 H   0  0  0  0  0  0  0  0  0  0  0  0
   27.5040   51.7150   -7.0401 H   0  0  0  0  0  0  0  0  0  0  0  0
   26.3459   52.5107   -5.9192 H   0  0  0  0  0  0  0  0  0  0  0  0
   25.8711   53.1014   -8.2636 H   0  0  0  0  0  0  0  0  0  0  0  0
   24.5272   52.1150   -7.5204 H   0  0  0  0  0  0  0  0  0  0  0  0
   24.1601   50.0120   -8.0158 H   0  0  0  0  0  0  0  0  0  0  0  0
   25.2441   49.1012   -9.1686 H   0  0  0  0  0  0  0  0  0  0  0  0
   25.6661   48.4695   -6.8214 H   0  0  0  0  0  0  0  0  0  0  0  0
   27.0906   49.2496   -7.5868 H   0  0  0  0  0  0  0  0  0  0  0  0
   27.1691   51.7622    1.4896 H   0  0  0  0  0  0  0  0  0  0  0  0
   28.0842   51.6397   -0.0513 H   0  0  0  0  0  0  0  0  0  0  0  0
   26.4071   52.2833   -0.0513 H   0  0  0  0  0  0  0  0  0  0  0  0
   26.6044   51.0581   -9.3439 H   0  0  0  0  0  0  0  0  0  0  0  0
 24 17  1  0
 24 16  1  0
 17 18  1  0
 16 15  1  0
 18 23  1  0
 15 23  1  0
 23 12  1  0
 12 13  2  0
 12 11  1  0
 13 14  1  0
 11 10  2  0
 14  9  2  0
 10  9  1  0
  9  4  1  0
  4  5  2  0
  4 21  1  0
  5  6  1  0
 21 19  1  0
 21  7  1  0
  6  7  2  0
  6  3  1  0
  7 20  1  0
 22  8  3  0
  8  3  1  0
  3  1  2  0
 20  2  2  0
  1  2  1  0
  1 25  1  0
  2 26  1  0
  5 27  1  0
 10 28  1  0
 11 29  1  0
 13 30  1  0
 14 31  1  0
 15 32  1  0
 15 33  1  0
 16 34  1  0
 16 35  1  0
 17 36  1  0
 17 37  1  0
 18 38  1  0
 18 39  1  0
 19 40  1  0
 19 41  1  0
 19 42  1  0
 24 43  1  0
A    1
CAA
A    2
CAB
A    3
CAD
A    4
CAF
A    5
CAG
A    6
CAH
A    7
CAI
A    8
CAJ
A    9
CAL
A   10
CAM
A   11
CAN
A   12
CAO
A   13
CAP
A   14
CAQ
A   15
CAS
A   16
CAT
A   17
CAV
A   18
CAW
A   19
CAX
A   20
NAC
A   21
NAE
A   22
NAK
A   23
NAR
A   24
NAU
M  END
