3MG1_ECH_A_351
     RDKit          3D

 95 96  0  0  0  0  0  0  0  0999 V2000
  -22.0420   50.7790   31.1850 C   0  0  0  0  0  0  0  0  0  0  0  0
  -22.3600   50.9180   32.6490 C   0  0  0  0  0  0  0  0  0  0  0  0
  -21.2100   51.5120   33.4400 C   0  0  0  0  0  0  0  0  0  0  0  0
  -20.7660   52.8490   32.9220 C   0  0  0  0  0  0  0  0  0  0  0  0
  -20.7510   52.9670   31.3840 C   0  0  0  0  0  0  0  0  0  0  0  0
  -21.3580   52.0290   30.5860 C   0  0  0  0  0  0  0  0  0  0  0  0
  -21.3950   52.1120   29.0580 C   0  0  0  0  0  0  0  0  0  0  0  0
  -21.8280   53.1920   28.4330 C   0  0  0  0  0  0  0  0  0  0  0  0
  -21.7850   53.2520   26.9010 C   0  0  0  0  0  0  0  0  0  0  0  0
  -22.2290   54.3560   26.3080 C   0  0  0  0  0  0  0  0  0  0  0  0
  -22.1150   54.5830   24.7910 C   0  0  0  0  0  0  0  0  0  0  0  0
  -22.5620   55.7750   24.3630 C   0  0  0  0  0  0  0  0  0  0  0  0
  -22.3420   56.2370   22.9130 C   0  0  0  0  0  0  0  0  0  0  0  0
  -22.6770   57.4920   22.6120 C   0  0  0  0  0  0  0  0  0  0  0  0
  -22.3300   58.1480   21.2730 C   0  0  0  0  0  0  0  0  0  0  0  0
  -22.7440   59.4060   21.0880 C   0  0  0  0  0  0  0  0  0  0  0  0
  -22.1910   60.1720   19.8830 C   0  0  0  0  0  0  0  0  0  0  0  0
  -22.4830   61.4650   19.6840 C   0  0  0  0  0  0  0  0  0  0  0  0
  -21.9320   62.1250   18.4130 C   0  0  0  0  0  0  0  0  0  0  0  0
  -22.3170   63.3680   18.1010 C   0  0  0  0  0  0  0  0  0  0  0  0
  -21.5360   64.0320   16.9660 C   0  0  0  0  0  0  0  0  0  0  0  0
  -21.8880   65.2110   16.4550 C   0  0  0  0  0  0  0  0  0  0  0  0
  -20.8670   65.8490   15.5130 C   0  0  0  0  0  0  0  0  0  0  0  0
  -21.1140   67.0220   14.9620 C   0  0  0  0  0  0  0  0  0  0  0  0
  -20.0030   67.7440   14.1880 C   0  0  0  0  0  0  0  0  0  0  0  0
  -20.3920   68.4770   13.1350 C   0  0  0  0  0  0  0  0  0  0  0  0
  -19.4470   69.4290   12.4160 C   0  0  0  0  0  0  0  0  0  0  0  0
  -19.8630   70.1230   11.5210 O   0  0  0  0  0  0  0  0  0  0  0  0
  -18.0380   69.5610   12.9330 C   0  0  0  0  0  0  0  0  0  0  0  0
  -17.6120   68.3730   13.7610 C   0  0  0  0  0  0  0  0  0  0  0  0
  -18.6160   67.9880   14.8440 C   0  0  0  0  0  0  0  0  0  0  0  0
  -21.1260   49.5630   30.9790 C   0  0  0  0  0  0  0  0  0  0  0  0
  -23.3390   50.5180   30.4370 C   0  0  0  0  0  0  0  0  0  0  0  0
  -20.0560   54.1940   30.7900 C   0  0  0  0  0  0  0  0  0  0  0  0
  -21.2320   52.0800   26.0850 C   0  0  0  0  0  0  0  0  0  0  0  0
  -21.7690   55.2860   21.8670 C   0  0  0  0  0  0  0  0  0  0  0  0
  -23.4680   62.2520   20.5630 C   0  0  0  0  0  0  0  0  0  0  0  0
  -23.0900   66.0070   16.9590 C   0  0  0  0  0  0  0  0  0  0  0  0
  -21.7500   68.2320   12.4980 C   0  0  0  0  0  0  0  0  0  0  0  0
  -18.0580   66.7480   15.5800 C   0  0  0  0  0  0  0  0  0  0  0  0
  -18.7200   69.1150   15.8510 C   0  0  0  0  0  0  0  0  0  0  0  0
  -23.2381   51.5714   32.7587 H   0  0  0  0  0  0  0  0  0  0  0  0
  -22.5531   49.9105   33.0459 H   0  0  0  0  0  0  0  0  0  0  0  0
  -21.5292   51.6305   34.4860 H   0  0  0  0  0  0  0  0  0  0  0  0
  -20.3570   50.8241   33.3444 H   0  0  0  0  0  0  0  0  0  0  0  0
  -21.4487   53.6149   33.3186 H   0  0  0  0  0  0  0  0  0  0  0  0
  -19.7267   52.9842   33.2560 H   0  0  0  0  0  0  0  0  0  0  0  0
  -21.0524   51.2507   28.4657 H   0  0  0  0  0  0  0  0  0  0  0  0
  -22.2177   54.0445   29.0086 H   0  0  0  0  0  0  0  0  0  0  0  0
  -22.6958   55.1371   26.9260 H   0  0  0  0  0  0  0  0  0  0  0  0
  -21.6992   53.8269   24.1088 H   0  0  0  0  0  0  0  0  0  0  0  0
  -23.0960   56.4338   25.0636 H   0  0  0  0  0  0  0  0  0  0  0  0
  -23.2274   58.0825   23.3593 H   0  0  0  0  0  0  0  0  0  0  0  0
  -21.7655   57.6088   20.4980 H   0  0  0  0  0  0  0  0  0  0  0  0
  -23.4591   59.8756   21.7795 H   0  0  0  0  0  0  0  0  0  0  0  0
  -21.5405   59.6503   19.1656 H   0  0  0  0  0  0  0  0  0  0  0  0
  -21.2280   61.5821   17.7652 H   0  0  0  0  0  0  0  0  0  0  0  0
  -23.1391   63.8774   18.6251 H   0  0  0  0  0  0  0  0  0  0  0  0
  -20.6532   63.5184   16.5575 H   0  0  0  0  0  0  0  0  0  0  0  0
  -19.9232   65.3283   15.2938 H   0  0  0  0  0  0  0  0  0  0  0  0
  -22.1099   67.4795   15.0568 H   0  0  0  0  0  0  0  0  0  0  0  0
  -17.3553   69.6565   12.0758 H   0  0  0  0  0  0  0  0  0  0  0  0
  -18.0015   70.4496   13.5803 H   0  0  0  0  0  0  0  0  0  0  0  0
  -17.4781   67.5119   13.0897 H   0  0  0  0  0  0  0  0  0  0  0  0
  -16.6800   68.6554   14.2725 H   0  0  0  0  0  0  0  0  0  0  0  0
  -20.8237   49.1617   31.9576 H   0  0  0  0  0  0  0  0  0  0  0  0
  -21.6666   48.7879   30.4160 H   0  0  0  0  0  0  0  0  0  0  0  0
  -20.2318   49.8687   30.4160 H   0  0  0  0  0  0  0  0  0  0  0  0
  -24.1523   50.3543   31.1593 H   0  0  0  0  0  0  0  0  0  0  0  0
  -23.5789   51.3859   29.8051 H   0  0  0  0  0  0  0  0  0  0  0  0
  -23.2245   49.6249   29.8051 H   0  0  0  0  0  0  0  0  0  0  0  0
  -19.6910   54.8383   31.6034 H   0  0  0  0  0  0  0  0  0  0  0  0
  -19.2072   53.8702   30.1698 H   0  0  0  0  0  0  0  0  0  0  0  0
  -20.7702   54.7555   30.1698 H   0  0  0  0  0  0  0  0  0  0  0  0
  -20.8638   51.2996   26.7672 H   0  0  0  0  0  0  0  0  0  0  0  0
  -22.0298   51.6660   25.4508 H   0  0  0  0  0  0  0  0  0  0  0  0
  -20.4052   52.4325   25.4508 H   0  0  0  0  0  0  0  0  0  0  0  0
  -21.2643   54.4483   22.3704 H   0  0  0  0  0  0  0  0  0  0  0  0
  -22.5841   54.8985   21.2381 H   0  0  0  0  0  0  0  0  0  0  0  0
  -21.0455   55.8255   21.2381 H   0  0  0  0  0  0  0  0  0  0  0  0
  -23.2396   62.0695   21.6234 H   0  0  0  0  0  0  0  0  0  0  0  0
  -23.3740   63.3266   20.3473 H   0  0  0  0  0  0  0  0  0  0  0  0
  -24.4953   61.9232   20.3473 H   0  0  0  0  0  0  0  0  0  0  0  0
  -23.0932   66.0091   18.0590 H   0  0  0  0  0  0  0  0  0  0  0  0
  -23.0254   67.0414   16.5905 H   0  0  0  0  0  0  0  0  0  0  0  0
  -24.0172   65.5438   16.5905 H   0  0  0  0  0  0  0  0  0  0  0  0
  -22.5054   68.0957   13.2859 H   0  0  0  0  0  0  0  0  0  0  0  0
  -22.0232   69.0954   11.8735 H   0  0  0  0  0  0  0  0  0  0  0  0
  -21.7043   67.3276   11.8735 H   0  0  0  0  0  0  0  0  0  0  0  0
  -18.1283   66.9041   16.6666 H   0  0  0  0  0  0  0  0  0  0  0  0
  -18.6434   65.8603   15.2985 H   0  0  0  0  0  0  0  0  0  0  0  0
  -17.0053   66.5974   15.2985 H   0  0  0  0  0  0  0  0  0  0  0  0
  -18.6818   68.7013   16.8695 H   0  0  0  0  0  0  0  0  0  0  0  0
  -17.8825   69.8135   15.7073 H   0  0  0  0  0  0  0  0  0  0  0  0
  -19.6712   69.6485   15.7073 H   0  0  0  0  0  0  0  0  0  0  0  0
  2  1  1  0
  1 33  1  0
  1  6  1  0
  1 32  1  0
  3  2  1  0
  3  4  1  0
  4  5  1  0
  5 34  1  0
  5  6  2  0
  6  7  1  0
  7  8  2  0
  8  9  1  0
  9 10  2  0
  9 35  1  0
 10 11  1  0
 11 12  2  0
 12 13  1  0
 13 14  2  0
 13 36  1  0
 14 15  1  0
 15 16  2  0
 16 17  1  0
 17 18  2  0
 37 18  1  0
 18 19  1  0
 19 20  2  0
 20 21  1  0
 21 22  2  0
 38 22  1  0
 22 23  1  0
 23 24  2  0
 24 25  1  0
 31 25  1  0
 25 26  2  0
 26 39  1  0
 26 27  1  0
 29 27  1  0
 27 28  2  0
 30 29  1  0
 31 30  1  0
 40 31  1  0
 41 31  1  0
  2 42  1  0
  2 43  1  0
  3 44  1  0
  3 45  1  0
  4 46  1  0
  4 47  1  0
  7 48  1  0
  8 49  1  0
 10 50  1  0
 11 51  1  0
 12 52  1  0
 14 53  1  0
 15 54  1  0
 16 55  1  0
 17 56  1  0
 19 57  1  0
 20 58  1  0
 21 59  1  0
 23 60  1  0
 24 61  1  0
 29 62  1  0
 29 63  1  0
 30 64  1  0
 30 65  1  0
 32 66  1  0
 32 67  1  0
 32 68  1  0
 33 69  1  0
 33 70  1  0
 33 71  1  0
 34 72  1  0
 34 73  1  0
 34 74  1  0
 35 75  1  0
 35 76  1  0
 35 77  1  0
 36 78  1  0
 36 79  1  0
 36 80  1  0
 37 81  1  0
 37 82  1  0
 37 83  1  0
 38 84  1  0
 38 85  1  0
 38 86  1  0
 39 87  1  0
 39 88  1  0
 39 89  1  0
 40 90  1  0
 40 91  1  0
 40 92  1  0
 41 93  1  0
 41 94  1  0
 41 95  1  0
A    1
C1
A    2
C2
A    3
C3
A    4
C4
A    5
C5
A    6
C6
A    7
C7
A    8
C8
A    9
C9
A   10
C10
A   11
C11
A   12
C12
A   13
C13
A   14
C14
A   15
C15
A   16
C16
A   17
C17
A   18
C18
A   19
C19
A   20
C20
A   21
C21
A   22
C22
A   23
C23
A   24
C24
A   25
C25
A   26
C26
A   27
C27
A   28
O27
A   29
C28
A   30
C29
A   31
C30
A   32
C31
A   33
C32
A   34
C33
A   35
C34
A   36
C35
A   37
C36
A   38
C37
A   39
C38
A   40
C39
A   41
C40
M  END
