5TVJ_7LF_A_502
     RDKit          3D

 44 47  0  0  0  0  0  0  0  0999 V2000
   20.6940   -9.8750   38.4260 N   0  0  0  0  0  0  0  0  0  0  0  0
   20.1820  -11.1960   36.3830 C   0  0  0  0  0  0  0  0  0  0  0  0
   19.0970  -10.6620   36.3690 O   0  0  0  0  0  0  0  0  0  0  0  0
   20.1570  -15.2540   41.8700 F   0  0  0  0  0  0  0  0  0  0  0  0
   20.0640  -14.0230   41.3130 C   0  0  0  0  0  0  0  0  0  0  0  0
   20.8260  -12.9620   41.8120 C   0  0  0  0  0  0  0  0  0  0  0  0
   20.7340  -11.6920   41.2340 C   0  0  0  0  0  0  0  0  0  0  0  0
   19.2100  -13.8090   40.2280 C   0  0  0  0  0  0  0  0  0  0  0  0
   19.1160  -12.5420   39.6520 C   0  0  0  0  0  0  0  0  0  0  0  0
   19.8820  -11.4820   40.1510 C   0  0  0  0  0  0  0  0  0  0  0  0
   19.7230  -10.1590   39.4910 C   0  0  0  0  0  0  0  0  0  0  0  0
   19.5370   -8.9770   40.3550 C   0  0  0  0  0  0  0  0  0  0  0  0
   20.0130   -7.7530   40.1010 N   0  0  0  0  0  0  0  0  0  0  0  0
   19.5460   -6.9230   41.0440 C   0  0  0  0  0  0  0  0  0  0  0  0
   18.7130   -7.5630   41.9330 C   0  0  0  0  0  0  0  0  0  0  0  0
   18.6800   -8.8640   41.4950 C   0  0  0  0  0  0  0  0  0  0  0  0
   20.8310   -7.5670   39.0700 C   0  0  0  0  0  0  0  0  0  0  0  0
   21.1520   -8.6340   38.2340 C   0  0  0  0  0  0  0  0  0  0  0  0
   21.1390  -10.8960   37.4790 C   0  0  0  0  0  0  0  0  0  0  0  0
   20.6090  -12.1590   35.3230 C   0  0  0  0  0  0  0  0  0  0  0  0
   19.7360  -12.4300   34.2780 C   0  0  0  0  0  0  0  0  0  0  0  0
   20.0990  -13.3160   33.2740 C   0  0  0  0  0  0  0  0  0  0  0  0
   21.3370  -13.9340   33.3040 C   0  0  0  0  0  0  0  0  0  0  0  0
   21.6990  -14.8860   32.1970 C   0  0  0  0  0  0  0  0  0  0  0  0
   22.2220  -13.6710   34.3470 C   0  0  0  0  0  0  0  0  0  0  0  0
   21.8590  -12.7850   35.3580 C   0  0  0  0  0  0  0  0  0  0  0  0
   21.5017  -13.1273   42.6641 H   0  0  0  0  0  0  0  0  0  0  0  0
   21.3329  -10.8602   41.6333 H   0  0  0  0  0  0  0  0  0  0  0  0
   18.6113  -14.6404   39.8277 H   0  0  0  0  0  0  0  0  0  0  0  0
   18.4374  -12.3753   38.8025 H   0  0  0  0  0  0  0  0  0  0  0  0
   19.7992   -5.8540   41.1008 H   0  0  0  0  0  0  0  0  0  0  0  0
   18.1912   -7.1300   42.7992 H   0  0  0  0  0  0  0  0  0  0  0  0
   18.0946   -9.6800   41.9440 H   0  0  0  0  0  0  0  0  0  0  0  0
   21.2545   -6.5703   38.8769 H   0  0  0  0  0  0  0  0  0  0  0  0
   21.8135   -8.4465   37.3754 H   0  0  0  0  0  0  0  0  0  0  0  0
   21.3187  -11.8256   38.0390 H   0  0  0  0  0  0  0  0  0  0  0  0
   22.0426  -10.4948   36.9967 H   0  0  0  0  0  0  0  0  0  0  0  0
   18.7518  -11.9399   34.2459 H   0  0  0  0  0  0  0  0  0  0  0  0
   19.4004  -13.5280   32.4512 H   0  0  0  0  0  0  0  0  0  0  0  0
   22.0585  -15.8314   32.6294 H   0  0  0  0  0  0  0  0  0  0  0  0
   20.8121  -15.0806   31.5761 H   0  0  0  0  0  0  0  0  0  0  0  0
   22.4911  -14.4421   31.5761 H   0  0  0  0  0  0  0  0  0  0  0  0
   23.2059  -14.1623   34.3719 H   0  0  0  0  0  0  0  0  0  0  0  0
   22.5553  -12.5776   36.1839 H   0  0  0  0  0  0  0  0  0  0  0  0
 24 23  1  0
 22 23  1  0
 22 21  2  0
 23 25  2  0
 21 20  1  0
 25 26  1  0
 20 26  2  0
 20  2  1  0
  3  2  2  0
  2 19  1  0
 19  1  1  0
 18  1  1  0
 18 17  2  0
  1 11  2  0
 17 13  1  0
 11 10  1  0
 11 12  1  0
  9 10  2  0
  9  8  1  0
 13 12  1  0
 13 14  1  0
 10  7  1  0
  8  5  2  0
 12 16  2  0
 14 15  2  0
  7  6  2  0
  5  6  1  0
  5  4  1  0
 16 15  1  0
  6 27  1  0
  7 28  1  0
  8 29  1  0
  9 30  1  0
 14 31  1  0
 15 32  1  0
 16 33  1  0
 17 34  1  0
 18 35  1  0
 19 36  1  0
 19 37  1  0
 21 38  1  0
 22 39  1  0
 24 40  1  0
 24 41  1  0
 24 42  1  0
 25 43  1  0
 26 44  1  0
M  CHG  1   1   1
A    1
N
A    2
C
A    3
O
A    4
F
A    5
C6
A    6
C5
A    7
C4
A    8
C7
A    9
C8
A   10
C3
A   11
C2
A   12
C9
A   13
N1
A   14
C12
A   15
C11
A   16
C10
A   17
C13
A   18
C14
A   19
C1
A   20
C15
A   21
C21
A   22
C20
A   23
C18
A   24
C19
A   25
C17
A   26
C16
M  END
