5TWO_7MV_A_501
     RDKit          3D

 46 49  0  0  0  0  0  0  0  0999 V2000
  -21.3150  -20.4530   14.3660 C   0  0  0  0  0  0  0  0  0  0  0  0
  -21.4820  -23.7640   12.4660 C   0  0  0  0  0  0  0  0  0  0  0  0
  -20.1820  -24.2340   12.6410 C   0  0  0  0  0  0  0  0  0  0  0  0
  -20.9290  -21.7840   13.7490 C   0  0  0  0  0  0  0  0  0  0  0  0
  -21.8590  -22.5490   13.0110 C   0  0  0  0  0  0  0  0  0  0  0  0
  -19.6310  -22.2670   13.9260 C   0  0  0  0  0  0  0  0  0  0  0  0
  -27.7170  -17.9580    8.5290 C   0  0  0  0  0  0  0  0  0  0  0  0
  -25.6870  -16.6820    8.6830 C   0  0  0  0  0  0  0  0  0  0  0  0
  -27.5950  -19.1520    7.6430 C   0  0  0  0  0  0  0  0  0  0  0  0
  -26.3690  -20.4120    5.9920 C   0  0  0  0  0  0  0  0  0  0  0  0
  -26.4680  -19.3040    6.8100 C   0  0  0  0  0  0  0  0  0  0  0  0
  -27.3960  -21.3850    5.9810 C   0  0  0  0  0  0  0  0  0  0  0  0
  -28.6260  -20.1310    7.6230 C   0  0  0  0  0  0  0  0  0  0  0  0
  -24.5410  -16.6330    9.4930 C   0  0  0  0  0  0  0  0  0  0  0  0
  -26.4030  -19.3510   11.0250 C   0  0  0  0  0  0  0  0  0  0  0  0
  -19.2520  -23.4760   13.3810 C   0  0  0  0  0  0  0  0  0  0  0  0
  -28.5280  -21.2330    6.8060 C   0  0  0  0  0  0  0  0  0  0  0  0
  -23.5350  -19.7070   13.5820 C   0  0  0  0  0  0  0  0  0  0  0  0
  -24.4060  -19.2010   12.3720 C   0  0  0  0  0  0  0  0  0  0  0  0
  -25.6350  -19.8020   12.0940 C   0  0  0  0  0  0  0  0  0  0  0  0
  -23.9300  -18.1260   11.5750 C   0  0  0  0  0  0  0  0  0  0  0  0
  -24.7110  -17.6720   10.4870 C   0  0  0  0  0  0  0  0  0  0  0  0
  -25.9240  -18.2620   10.2080 C   0  0  0  0  0  0  0  0  0  0  0  0
  -27.2230  -22.8040    4.8990 Cl  0  0  0  0  0  0  0  0  0  0  0  0
  -25.3320  -20.5760    5.2140 F   0  0  0  0  0  0  0  0  0  0  0  0
  -24.0970  -20.1580   14.5560 O   0  0  0  0  0  0  0  0  0  0  0  0
  -22.1020  -19.6430   13.5170 N   0  0  0  0  0  0  0  0  0  0  0  0
  -26.4760  -17.6370    9.1150 N   0  0  0  0  0  0  0  0  0  0  0  0
  -20.3943  -19.9047   14.6143 H   0  0  0  0  0  0  0  0  0  0  0  0
  -21.9231  -20.6741   15.2556 H   0  0  0  0  0  0  0  0  0  0  0  0
  -22.2092  -24.3591   11.8942 H   0  0  0  0  0  0  0  0  0  0  0  0
  -19.8814  -25.1966   12.2017 H   0  0  0  0  0  0  0  0  0  0  0  0
  -22.8849  -22.1784   12.8691 H   0  0  0  0  0  0  0  0  0  0  0  0
  -18.9044  -21.6782   14.5051 H   0  0  0  0  0  0  0  0  0  0  0  0
  -28.0661  -17.1017    7.9332 H   0  0  0  0  0  0  0  0  0  0  0  0
  -28.4350  -18.1871    9.3303 H   0  0  0  0  0  0  0  0  0  0  0  0
  -25.8905  -16.0253    7.8243 H   0  0  0  0  0  0  0  0  0  0  0  0
  -25.6723  -18.5445    6.8116 H   0  0  0  0  0  0  0  0  0  0  0  0
  -29.5094  -20.0059    8.2664 H   0  0  0  0  0  0  0  0  0  0  0  0
  -23.6881  -15.9455    9.3928 H   0  0  0  0  0  0  0  0  0  0  0  0
  -27.3717  -19.8227   10.8034 H   0  0  0  0  0  0  0  0  0  0  0  0
  -18.2266  -23.8478   13.5234 H   0  0  0  0  0  0  0  0  0  0  0  0
  -29.3267  -21.9893    6.7967 H   0  0  0  0  0  0  0  0  0  0  0  0
  -25.9960  -20.6316   12.7197 H   0  0  0  0  0  0  0  0  0  0  0  0
  -22.9638  -17.6515   11.8017 H   0  0  0  0  0  0  0  0  0  0  0  0
  -21.6464  -19.0046   12.8494 H   0  0  0  0  0  0  0  0  0  0  0  0
 24 12  1  0
 25 10  1  0
 12 10  2  0
 12 17  1  0
 10 11  1  0
 11  9  2  0
 17 13  2  0
 13  9  1  0
  9  7  1  0
  7 28  1  0
  8 28  1  0
  8 14  2  0
 28 23  1  0
 14 22  1  0
 23 22  2  0
 23 15  1  0
 22 21  1  0
 15 20  2  0
 21 19  2  0
 20 19  1  0
 19 18  1  0
  2  3  2  0
  2  5  1  0
  3 16  1  0
  5  4  2  0
 16  6  2  0
 27 18  1  0
 27  1  1  0
 18 26  2  0
  4  6  1  0
  4  1  1  0
  1 29  1  0
  1 30  1  0
  2 31  1  0
  3 32  1  0
  5 33  1  0
  6 34  1  0
  7 35  1  0
  7 36  1  0
  8 37  1  0
 11 38  1  0
 13 39  1  0
 14 40  1  0
 15 41  1  0
 16 42  1  0
 17 43  1  0
 20 44  1  0
 21 45  1  0
 27 46  1  0
A    1
C4
A    2
C5
A    3
C6
A    4
C1
A    5
C3
A    6
C2
A    7
C19
A    8
C18
A    9
C20
A   10
C23
A   11
C21
A   12
C15
A   13
C22
A   14
C17
A   15
C16
A   16
C7
A   17
C8
A   18
C9
A   19
C10
A   20
C11
A   21
C12
A   22
C13
A   23
C14
A   24
CL
A   25
F
A   26
O
A   27
N1
A   28
N2
M  END
