5TX3_7MY_A_1000
     RDKit          3D

 66 71  0  0  0  0  0  0  0  0999 V2000
   17.1710   -8.5600   35.3550 C   0  0  0  0  0  0  0  0  0  0  0  0
   18.2720   -8.6720   34.6540 C   0  0  0  0  0  0  0  0  0  0  0  0
   18.8820   -7.5890   33.8950 C   0  0  0  0  0  0  0  0  0  0  0  0
   18.2630   -6.3800   33.9570 N   0  0  0  0  0  0  0  0  0  0  0  0
   16.5220   -7.2940   35.3880 N   0  0  0  0  0  0  0  0  0  0  0  0
   13.8910   -2.0040   38.9720 C   0  0  0  0  0  0  0  0  0  0  0  0
   15.2290   -1.2730   39.2110 C   0  0  0  0  0  0  0  0  0  0  0  0
   14.8030    0.1790   39.1350 C   0  0  0  0  0  0  0  0  0  0  0  0
   13.4830    0.1750   38.3570 C   0  0  0  0  0  0  0  0  0  0  0  0
   13.1640   -1.1680   38.0600 N   0  0  0  0  0  0  0  0  0  0  0  0
   13.4710   -1.3980   36.6540 C   0  0  0  0  0  0  0  0  0  0  0  0
   13.6790   -2.8900   36.2620 C   0  0  0  0  0  0  0  0  0  0  0  0
   14.8740   -3.2660   35.6700 C   0  0  0  0  0  0  0  0  0  0  0  0
   12.7050   -3.8560   36.4640 C   0  0  0  0  0  0  0  0  0  0  0  0
   12.9430   -5.1890   36.0900 C   0  0  0  0  0  0  0  0  0  0  0  0
   14.1570   -5.5490   35.5160 C   0  0  0  0  0  0  0  0  0  0  0  0
   15.1340   -4.5900   35.2900 C   0  0  0  0  0  0  0  0  0  0  0  0
   16.4260   -4.8860   34.6920 N   0  0  0  0  0  0  0  0  0  0  0  0
   17.0620   -6.1910   34.6860 C   0  0  0  0  0  0  0  0  0  0  0  0
   18.8750  -10.0850   34.6570 C   0  0  0  0  0  0  0  0  0  0  0  0
   20.3340  -10.3200   35.1520 C   0  0  0  0  0  0  0  0  0  0  0  0
   18.9730  -10.7920   33.3090 C   0  0  0  0  0  0  0  0  0  0  0  0
   17.8250  -10.7210   35.5640 C   0  0  0  0  0  0  0  0  0  0  0  0
   17.8210  -12.0380   35.9530 O   0  0  0  0  0  0  0  0  0  0  0  0
   16.8580   -9.8010   35.9400 N   0  0  0  0  0  0  0  0  0  0  0  0
   15.7570  -10.1070   36.7710 C   0  0  0  0  0  0  0  0  0  0  0  0
   15.6770   -9.0020   37.6830 C   0  0  0  0  0  0  0  0  0  0  0  0
   14.1900   -8.6290   37.8110 C   0  0  0  0  0  0  0  0  0  0  0  0
   13.7550   -9.1630   36.4310 C   0  0  0  0  0  0  0  0  0  0  0  0
   14.6400   -9.9800   35.9030 C   0  0  0  0  0  0  0  0  0  0  0  0
   14.3940  -10.6000   34.5760 C   0  0  0  0  0  0  0  0  0  0  0  0
   13.2250  -10.3340   33.8800 C   0  0  0  0  0  0  0  0  0  0  0  0
   12.2640   -9.4490   34.4660 C   0  0  0  0  0  0  0  0  0  0  0  0
   12.5170   -8.8740   35.7060 C   0  0  0  0  0  0  0  0  0  0  0  0
   11.5760   -8.0050   36.2670 O   0  0  0  0  0  0  0  0  0  0  0  0
   19.7961   -7.7412   33.3023 H   0  0  0  0  0  0  0  0  0  0  0  0
   13.3386   -2.1163   39.9166 H   0  0  0  0  0  0  0  0  0  0  0  0
   14.0416   -3.0170   38.5707 H   0  0  0  0  0  0  0  0  0  0  0  0
   15.6484   -1.5168   40.1982 H   0  0  0  0  0  0  0  0  0  0  0  0
   16.0202   -1.5444   38.4966 H   0  0  0  0  0  0  0  0  0  0  0  0
   15.5604    0.7752   38.6050 H   0  0  0  0  0  0  0  0  0  0  0  0
   14.6879    0.6246   40.1341 H   0  0  0  0  0  0  0  0  0  0  0  0
   13.5957    0.7483   37.4250 H   0  0  0  0  0  0  0  0  0  0  0  0
   12.6830    0.6383   38.9531 H   0  0  0  0  0  0  0  0  0  0  0  0
   14.3934   -0.8497   36.4119 H   0  0  0  0  0  0  0  0  0  0  0  0
   12.5949   -1.0503   36.0870 H   0  0  0  0  0  0  0  0  0  0  0  0
   15.6438   -2.5006   35.4924 H   0  0  0  0  0  0  0  0  0  0  0  0
   11.7428   -3.5776   36.9186 H   0  0  0  0  0  0  0  0  0  0  0  0
   12.1661   -5.9507   36.2519 H   0  0  0  0  0  0  0  0  0  0  0  0
   14.3436   -6.5974   35.2401 H   0  0  0  0  0  0  0  0  0  0  0  0
   16.9286   -4.1101   34.2378 H   0  0  0  0  0  0  0  0  0  0  0  0
   20.3521  -10.3229   36.2518 H   0  0  0  0  0  0  0  0  0  0  0  0
   20.6970  -11.2882   34.7768 H   0  0  0  0  0  0  0  0  0  0  0  0
   20.9827   -9.5148   34.7768 H   0  0  0  0  0  0  0  0  0  0  0  0
   19.1224  -11.8698   33.4703 H   0  0  0  0  0  0  0  0  0  0  0  0
   18.0440  -10.6313   32.7423 H   0  0  0  0  0  0  0  0  0  0  0  0
   19.8233  -10.3847   32.7423 H   0  0  0  0  0  0  0  0  0  0  0  0
   15.8140  -11.0801   37.2808 H   0  0  0  0  0  0  0  0  0  0  0  0
   16.0790   -9.2929   38.6647 H   0  0  0  0  0  0  0  0  0  0  0  0
   16.2651   -8.1478   37.3162 H   0  0  0  0  0  0  0  0  0  0  0  0
   14.0335   -7.5450   37.9133 H   0  0  0  0  0  0  0  0  0  0  0  0
   13.6532   -9.0218   38.6871 H   0  0  0  0  0  0  0  0  0  0  0  0
   15.1456  -11.2758   34.1419 H   0  0  0  0  0  0  0  0  0  0  0  0
   13.0395  -10.7933   32.8979 H   0  0  0  0  0  0  0  0  0  0  0  0
   11.3268   -9.2244   33.9357 H   0  0  0  0  0  0  0  0  0  0  0  0
   11.4956   -7.9307   37.2509 H   0  0  0  0  0  0  0  0  0  0  0  0
 22 20  1  0
 32 33  2  0
 32 31  1  0
  3  4  2  0
  3  2  1  0
  4 19  1  0
 33 34  1  0
 31 30  2  0
  2 20  1  0
  2  1  2  0
 20 21  1  0
 20 23  1  0
 19 18  1  0
 19  5  2  0
 18 17  1  0
 17 16  1  0
 17 13  2  0
  1  5  1  0
  1 25  1  0
 16 15  2  0
 23 25  1  0
 23 24  2  0
 13 12  1  0
 34 35  1  0
 34 29  2  0
 30 29  1  0
 30 26  1  0
 25 26  1  0
 15 14  1  0
 12 14  2  0
 12 11  1  0
 29 28  1  0
 11 10  1  0
 26 27  1  0
 27 28  1  0
 10  9  1  0
 10  6  1  0
  9  8  1  0
  6  7  1  0
  8  7  1  0
  3 36  1  0
  6 37  1  0
  6 38  1  0
  7 39  1  0
  7 40  1  0
  8 41  1  0
  8 42  1  0
  9 43  1  0
  9 44  1  0
 11 45  1  0
 11 46  1  0
 13 47  1  0
 14 48  1  0
 15 49  1  0
 16 50  1  0
 18 51  1  0
 21 52  1  0
 21 53  1  0
 21 54  1  0
 22 55  1  0
 22 56  1  0
 22 57  1  0
 26 58  1  0
 27 59  1  0
 27 60  1  0
 28 61  1  0
 28 62  1  0
 31 63  1  0
 32 64  1  0
 33 65  1  0
 35 66  1  0
A    1
C4
A    2
C5
A    3
C6
A    4
N1
A    5
N3
A    6
CAQ
A    7
CAM
A    8
CAN
A    9
CAR
A   10
NBG
A   11
CAS
A   12
CAX
A   13
CAL
A   14
CAG
A   15
CAE
A   16
CAI
A   17
CAZ
A   18
NAV
A   19
C2
A   20
CBI
A   21
CAA
A   22
CAB
A   23
CAW
A   24
OAC
A   25
NBH
A   26
CBF
A   27
CAP
A   28
CAO
A   29
CBC
A   30
CBB
A   31
CAJ
A   32
CAF
A   33
CAH
A   34
CAY
A   35
OAD
M  END
