5TZH_7OP_A_1001
     RDKit          3D

 43 46  0  0  0  0  0  0  0  0999 V2000
    4.8710    3.7690    6.8500 N   0  0  0  0  0  0  0  0  0  0  0  0
    6.0610    4.3950    6.8280 C   0  0  0  0  0  0  0  0  0  0  0  0
    6.3210    4.0730    4.4710 C   0  0  0  0  0  0  0  0  0  0  0  0
    7.8500    5.4180    7.2190 C   0  0  0  0  0  0  0  0  0  0  0  0
    3.1080    2.6200    5.7060 C   0  0  0  0  0  0  0  0  0  0  0  0
    8.1270    3.5370    1.1200 C   0  0  0  0  0  0  0  0  0  0  0  0
    9.0430    6.9810    1.5330 C   0  0  0  0  0  0  0  0  0  0  0  0
    9.6560    7.0650    3.8840 C   0  0  0  0  0  0  0  0  0  0  0  0
    9.9490    7.7930    5.0090 C   0  0  0  0  0  0  0  0  0  0  0  0
    9.6210    9.8330    3.7870 C   0  0  0  0  0  0  0  0  0  0  0  0
    9.9280    9.1660    4.9480 C   0  0  0  0  0  0  0  0  0  0  0  0
    9.3260    9.1140    2.6540 C   0  0  0  0  0  0  0  0  0  0  0  0
    9.3490    7.7440    2.7320 C   0  0  0  0  0  0  0  0  0  0  0  0
    5.1450    3.4430    4.4470 C   0  0  0  0  0  0  0  0  0  0  0  0
    4.4300    3.3210    5.7240 C   0  0  0  0  0  0  0  0  0  0  0  0
    7.0780    3.2680    2.1780 C   0  0  0  0  0  0  0  0  0  0  0  0
    7.3500    5.7310    2.8510 C   0  0  0  0  0  0  0  0  0  0  0  0
    8.1580    4.9630    0.6440 C   0  0  0  0  0  0  0  0  0  0  0  0
    7.1990    4.2890    3.2900 C   0  0  0  0  0  0  0  0  0  0  0  0
    6.7230    4.9370    7.8250 N   0  0  0  0  0  0  0  0  0  0  0  0
    7.9180    5.1990    5.9070 N   0  0  0  0  0  0  0  0  0  0  0  0
    6.7690    4.5470    5.6730 N   0  0  0  0  0  0  0  0  0  0  0  0
    8.2430    5.8900    1.7280 N   0  0  0  0  0  0  0  0  0  0  0  0
    9.5060    7.3350    0.4600 O   0  0  0  0  0  0  0  0  0  0  0  0
   10.2160    9.8680    6.0550 F   0  0  0  0  0  0  0  0  0  0  0  0
    9.3480    3.2070    1.6150 F   0  0  0  0  0  0  0  0  0  0  0  0
    7.9290    2.7620    0.0270 F   0  0  0  0  0  0  0  0  0  0  0  0
    8.6405    5.9457    7.7728 H   0  0  0  0  0  0  0  0  0  0  0  0
    2.7731    2.4424    6.7386 H   0  0  0  0  0  0  0  0  0  0  0  0
    2.3688    3.2447    5.1831 H   0  0  0  0  0  0  0  0  0  0  0  0
    3.2103    1.6577    5.1831 H   0  0  0  0  0  0  0  0  0  0  0  0
    9.6669    5.9653    3.9049 H   0  0  0  0  0  0  0  0  0  0  0  0
   10.1984    7.2829    5.9511 H   0  0  0  0  0  0  0  0  0  0  0  0
    9.6114   10.9327    3.7646 H   0  0  0  0  0  0  0  0  0  0  0  0
    9.0782    9.6223    1.7105 H   0  0  0  0  0  0  0  0  0  0  0  0
    4.7303    3.0339    3.5139 H   0  0  0  0  0  0  0  0  0  0  0  0
    6.0774    3.3366    1.7262 H   0  0  0  0  0  0  0  0  0  0  0  0
    7.2289    2.2600    2.5918 H   0  0  0  0  0  0  0  0  0  0  0  0
    7.7429    6.3151    3.6963 H   0  0  0  0  0  0  0  0  0  0  0  0
    6.3574    6.0831    2.5335 H   0  0  0  0  0  0  0  0  0  0  0  0
    9.0324    5.0999   -0.0091 H   0  0  0  0  0  0  0  0  0  0  0  0
    7.2208    5.1598    0.1028 H   0  0  0  0  0  0  0  0  0  0  0  0
    8.1963    4.0574    3.6921 H   0  0  0  0  0  0  0  0  0  0  0  0
 27  6  1  0
 24  7  2  0
 18  6  1  0
 18 23  1  0
  6 26  1  0
  6 16  1  0
  7 23  1  0
  7 13  1  0
 23 17  1  0
 16 19  1  0
 12 13  1  0
 12 10  2  0
 13  8  2  0
 17 19  1  0
 19  3  1  0
 10 11  1  0
  8  9  1  0
 14  3  2  0
 14 15  1  0
  3 22  1  0
 11  9  2  0
 11 25  1  0
 22 21  1  0
 22  2  1  0
  5 15  1  0
 15  1  2  0
 21  4  2  0
  2  1  1  0
  2 20  2  0
  4 20  1  0
  4 28  1  0
  5 29  1  0
  5 30  1  0
  5 31  1  0
  8 32  1  0
  9 33  1  0
 10 34  1  0
 12 35  1  0
 14 36  1  0
 16 37  1  0
 16 38  1  0
 17 39  1  0
 17 40  1  0
 18 41  1  0
 18 42  1  0
 19 43  1  0
A    1
N3
A    2
C4
A    3
C6
A    4
C8
A    5
C10
A    6
C13
A    7
C17
A    8
C20
A    9
C21
A   10
C22
A   11
C26
A   12
C23
A   13
C18
A   14
C1
A   15
C2
A   16
C12
A   17
C16
A   18
C14
A   19
C11
A   20
N7
A   21
N9
A   22
N5
A   23
N15
A   24
O19
A   25
F27
A   26
F24
A   27
F25
M  END
