5U00_7OV_A_1001
     RDKit          3D

 43 46  0  0  0  0  0  0  0  0999 V2000
    6.3380    4.5450    8.6240 N   0  0  0  0  0  0  0  0  0  0  0  0
    7.5590    5.1210    8.6900 C   0  0  0  0  0  0  0  0  0  0  0  0
    7.9610    4.8090    6.3520 C   0  0  0  0  0  0  0  0  0  0  0  0
    9.3690    6.0610    9.2080 C   0  0  0  0  0  0  0  0  0  0  0  0
    8.9240    5.0100    5.2390 C   0  0  0  0  0  0  0  0  0  0  0  0
    9.7580    4.3370    2.9960 C   0  0  0  0  0  0  0  0  0  0  0  0
   11.1640    8.4920    4.8420 C   0  0  0  0  0  0  0  0  0  0  0  0
   11.0760    9.8460    4.6210 C   0  0  0  0  0  0  0  0  0  0  0  0
   11.7840   10.2190    6.8650 C   0  0  0  0  0  0  0  0  0  0  0  0
   11.5650    7.9940    6.0670 C   0  0  0  0  0  0  0  0  0  0  0  0
   11.3800   10.7070    5.6480 C   0  0  0  0  0  0  0  0  0  0  0  0
   11.8880    8.8650    7.1090 C   0  0  0  0  0  0  0  0  0  0  0  0
    6.7530    4.2360    6.2380 C   0  0  0  0  0  0  0  0  0  0  0  0
    5.9600    4.1280    7.4650 C   0  0  0  0  0  0  0  0  0  0  0  0
   10.8470    7.6330    3.6810 C   0  0  0  0  0  0  0  0  0  0  0  0
    8.7650    4.0360    4.0880 C   0  0  0  0  0  0  0  0  0  0  0  0
    8.9340    6.4590    4.7870 C   0  0  0  0  0  0  0  0  0  0  0  0
    9.7720    5.7880    2.5710 C   0  0  0  0  0  0  0  0  0  0  0  0
    4.6090    3.4830    7.3440 C   0  0  0  0  0  0  0  0  0  0  0  0
    8.1880    5.6260    9.7330 N   0  0  0  0  0  0  0  0  0  0  0  0
    9.5180    5.8590    7.8960 N   0  0  0  0  0  0  0  0  0  0  0  0
    8.3550    5.2530    7.5890 N   0  0  0  0  0  0  0  0  0  0  0  0
    9.8550    6.6850    3.6990 N   0  0  0  0  0  0  0  0  0  0  0  0
   11.5410    7.8140    2.6930 O   0  0  0  0  0  0  0  0  0  0  0  0
   12.0740   11.1310    7.8280 F   0  0  0  0  0  0  0  0  0  0  0  0
   10.9900    3.9700    3.4730 F   0  0  0  0  0  0  0  0  0  0  0  0
    9.5460    3.5440    1.9040 F   0  0  0  0  0  0  0  0  0  0  0  0
   12.5080    8.2310    9.0200 I   0  0  0  0  0  0  0  0  0  0  0  0
   10.1439    6.5440    9.8214 H   0  0  0  0  0  0  0  0  0  0  0  0
    9.9175    4.7746    5.6484 H   0  0  0  0  0  0  0  0  0  0  0  0
   10.7675   10.2336    3.6389 H   0  0  0  0  0  0  0  0  0  0  0  0
   11.6300    6.9069    6.2217 H   0  0  0  0  0  0  0  0  0  0  0  0
   11.2990   11.7931    5.4936 H   0  0  0  0  0  0  0  0  0  0  0  0
    6.3774    3.8663    5.2725 H   0  0  0  0  0  0  0  0  0  0  0  0
    7.7458    4.1192    3.6825 H   0  0  0  0  0  0  0  0  0  0  0  0
    8.9454    3.0165    4.4594 H   0  0  0  0  0  0  0  0  0  0  0  0
    9.2273    7.0930    5.6367 H   0  0  0  0  0  0  0  0  0  0  0  0
    7.9235    6.7084    4.4310 H   0  0  0  0  0  0  0  0  0  0  0  0
   10.6411    5.9578    1.9185 H   0  0  0  0  0  0  0  0  0  0  0  0
    8.8293    5.9948    2.0433 H   0  0  0  0  0  0  0  0  0  0  0  0
    4.2038    3.2895    8.3482 H   0  0  0  0  0  0  0  0  0  0  0  0
    3.9299    4.1540    6.7976 H   0  0  0  0  0  0  0  0  0  0  0  0
    4.7038    2.5330    6.7976 H   0  0  0  0  0  0  0  0  0  0  0  0
 27  6  1  0
 18  6  1  0
 18 23  1  0
 24 15  2  0
  6 26  1  0
  6 16  1  0
 15 23  1  0
 15  7  1  0
 23 17  1  0
 16  5  1  0
  8  7  2  0
  8 11  1  0
 17  5  1  0
  7 10  1  0
  5  3  1  0
 11  9  2  0
 10 12  2  0
 13  3  2  0
 13 14  1  0
  3 22  1  0
  9 12  1  0
  9 25  1  0
 12 28  1  0
 19 14  1  0
 14  1  2  0
 22 21  1  0
 22  2  1  0
 21  4  2  0
  1  2  1  0
  2 20  2  0
  4 20  1  0
  4 29  1  0
  5 30  1  0
  8 31  1  0
 10 32  1  0
 11 33  1  0
 13 34  1  0
 16 35  1  0
 16 36  1  0
 17 37  1  0
 17 38  1  0
 18 39  1  0
 18 40  1  0
 19 41  1  0
 19 42  1  0
 19 43  1  0
A    1
N3
A    2
C4
A    3
C6
A    4
C8
A    5
C10
A    6
C13
A    7
C20
A    8
C22
A    9
C24
A   10
C26
A   11
C23
A   12
C25
A   13
C1
A   14
C2
A   15
C19
A   16
C12
A   17
C16
A   18
C14
A   19
C11
A   20
N7
A   21
N9
A   22
N5
A   23
N15
A   24
O21
A   25
F28
A   26
F17
A   27
F18
A   28
I27
M  END
