5U0L_8YP_A_507
     RDKit          3D

 26 25  0  0  0  0  0  0  0  0999 V2000
   35.9060    2.8890   38.8860 C   0  0  0  0  0  0  0  0  0  0  0  0
   35.4660    1.9160   40.0140 C   0  0  0  0  0  0  0  0  0  0  0  0
   34.9290    0.5880   39.4400 C   0  0  0  0  0  0  0  0  0  0  0  0
   33.3870    0.5450   39.4460 C   0  0  0  0  0  0  0  0  0  0  0  0
   32.8410   -0.2310   38.2340 C   0  0  0  0  0  0  0  0  0  0  0  0
   31.3160   -0.1850   38.3100 C   0  0  0  0  0  0  0  0  0  0  0  0
   30.5840   -0.2420   36.9390 C   0  0  0  0  0  0  0  0  0  0  0  0
   29.5780    0.9200   36.8170 C   0  0  0  0  0  0  0  0  0  0  0  0
   36.3202    3.8049   39.3327 H   0  0  0  0  0  0  0  0  0  0  0  0
   36.6731    2.4055   38.2632 H   0  0  0  0  0  0  0  0  0  0  0  0
   35.0363    3.1456   38.2632 H   0  0  0  0  0  0  0  0  0  0  0  0
   36.3311    1.7024   40.6590 H   0  0  0  0  0  0  0  0  0  0  0  0
   34.6584    2.3953   40.5867 H   0  0  0  0  0  0  0  0  0  0  0  0
   35.3110   -0.2441   40.0497 H   0  0  0  0  0  0  0  0  0  0  0  0
   35.2700    0.5026   38.3977 H   0  0  0  0  0  0  0  0  0  0  0  0
   33.0003    1.5743   39.4154 H   0  0  0  0  0  0  0  0  0  0  0  0
   33.0590    0.0313   40.3617 H   0  0  0  0  0  0  0  0  0  0  0  0
   33.1877   -1.2744   38.2686 H   0  0  0  0  0  0  0  0  0  0  0  0
   33.1963    0.2171   37.2943 H   0  0  0  0  0  0  0  0  0  0  0  0
   31.0281    0.7509   38.8111 H   0  0  0  0  0  0  0  0  0  0  0  0
   31.0097   -1.0882   38.8580 H   0  0  0  0  0  0  0  0  0  0  0  0
   30.0456   -1.1976   36.8552 H   0  0  0  0  0  0  0  0  0  0  0  0
   31.3283   -0.1551   36.1337 H   0  0  0  0  0  0  0  0  0  0  0  0
   29.2850    1.2584   37.8218 H   0  0  0  0  0  0  0  0  0  0  0  0
   30.0446    1.7532   36.2711 H   0  0  0  0  0  0  0  0  0  0  0  0
   28.6866    0.5775   36.2711 H   0  0  0  0  0  0  0  0  0  0  0  0
  8  7  1  0
  7  6  1  0
  5  6  1  0
  5  4  1  0
  1  2  1  0
  3  4  1  0
  3  2  1  0
  1  9  1  0
  1 10  1  0
  1 11  1  0
  2 12  1  0
  2 13  1  0
  3 14  1  0
  3 15  1  0
  4 16  1  0
  4 17  1  0
  5 18  1  0
  5 19  1  0
  6 20  1  0
  6 21  1  0
  7 22  1  0
  7 23  1  0
  8 24  1  0
  8 25  1  0
  8 26  1  0
A    1
C1
A    2
C2
A    3
C3
A    4
C4
A    5
C5
A    6
C6
A    7
C7
A    8
C8
M  END
