5U3B_7TD_A_502
     RDKit          3D

 44 44  0  0  0  0  0  0  0  0999 V2000
   16.0560  -15.9870   11.9230 C   0  0  0  0  0  0  0  0  0  0  0  0
   15.5270  -14.9730   12.9740 C   0  0  0  0  0  0  0  0  0  0  0  0
   16.4750  -15.3880   10.5250 C   0  0  0  0  0  0  0  0  0  0  0  0
   14.4840  -14.3460   12.7720 O   0  0  0  0  0  0  0  0  0  0  0  0
   11.3600  -22.4190   11.0480 O   0  0  0  0  0  0  0  0  0  0  0  0
   16.5580  -18.7680   11.9150 O   0  0  0  0  0  0  0  0  0  0  0  0
   14.2790  -19.3950   11.6500 C   0  0  0  0  0  0  0  0  0  0  0  0
   12.8980  -19.0250   11.6560 C   0  0  0  0  0  0  0  0  0  0  0  0
   11.8960  -20.0130   11.4810 C   0  0  0  0  0  0  0  0  0  0  0  0
   15.3890  -18.3830   11.8110 C   0  0  0  0  0  0  0  0  0  0  0  0
    8.5840  -24.4090   10.2730 C   0  0  0  0  0  0  0  0  0  0  0  0
    7.8140  -25.6150    9.9250 C   0  0  0  0  0  0  0  0  0  0  0  0
   15.2930  -14.9730    9.6180 C   0  0  0  0  0  0  0  0  0  0  0  0
   17.3880  -14.1590   10.6790 C   0  0  0  0  0  0  0  0  0  0  0  0
   17.2110  -16.3930    9.7490 N   0  0  0  0  0  0  0  0  0  0  0  0
    9.2350  -23.4160   10.5760 C   0  0  0  0  0  0  0  0  0  0  0  0
    9.9570  -22.1850   10.9410 C   0  0  0  0  0  0  0  0  0  0  0  0
   12.2480  -21.3830   11.2670 C   0  0  0  0  0  0  0  0  0  0  0  0
   13.6180  -21.7390   11.2340 C   0  0  0  0  0  0  0  0  0  0  0  0
   14.6260  -20.7550   11.4110 C   0  0  0  0  0  0  0  0  0  0  0  0
   15.0760  -17.0690   11.7800 N   0  0  0  0  0  0  0  0  0  0  0  0
   16.2770  -14.7310   14.0640 N   0  0  0  0  0  0  0  0  0  0  0  0
   15.6890  -13.7450   14.9020 O   0  0  0  0  0  0  0  0  0  0  0  0
   17.0105  -16.3657   12.3174 H   0  0  0  0  0  0  0  0  0  0  0  0
   12.6123  -17.9721   11.7966 H   0  0  0  0  0  0  0  0  0  0  0  0
   10.8354  -19.7226   11.5101 H   0  0  0  0  0  0  0  0  0  0  0  0
    7.4904  -26.1219   10.8461 H   0  0  0  0  0  0  0  0  0  0  0  0
    6.9312  -25.3287    9.3345 H   0  0  0  0  0  0  0  0  0  0  0  0
    8.4452  -26.2953    9.3345 H   0  0  0  0  0  0  0  0  0  0  0  0
   14.4389  -14.6731   10.2430 H   0  0  0  0  0  0  0  0  0  0  0  0
   15.5972  -14.1279    8.9830 H   0  0  0  0  0  0  0  0  0  0  0  0
   15.0022  -15.8228    8.9830 H   0  0  0  0  0  0  0  0  0  0  0  0
   17.5437  -13.9495   11.7476 H   0  0  0  0  0  0  0  0  0  0  0  0
   18.3575  -14.3601   10.1998 H   0  0  0  0  0  0  0  0  0  0  0  0
   16.9155  -13.2889   10.1998 H   0  0  0  0  0  0  0  0  0  0  0  0
   17.6866  -17.0424   10.3917 H   0  0  0  0  0  0  0  0  0  0  0  0
   16.5530  -16.9179    9.1553 H   0  0  0  0  0  0  0  0  0  0  0  0
    9.7789  -21.4227   10.1682 H   0  0  0  0  0  0  0  0  0  0  0  0
    9.5868  -21.8424   11.9185 H   0  0  0  0  0  0  0  0  0  0  0  0
   13.9042  -22.7883   11.0696 H   0  0  0  0  0  0  0  0  0  0  0  0
   15.6857  -21.0462   11.3630 H   0  0  0  0  0  0  0  0  0  0  0  0
   14.0877  -16.8110   11.6477 H   0  0  0  0  0  0  0  0  0  0  0  0
   17.1696  -15.2032   14.2669 H   0  0  0  0  0  0  0  0  0  0  0  0
   15.8343  -13.9887   15.8505 H   0  0  0  0  0  0  0  0  0  0  0  0
 13  3  1  0
 15  3  1  0
 12 11  1  0
 11 16  3  0
  3 14  1  0
  3  1  1  0
 16 17  1  0
 17  5  1  0
  5 18  1  0
 19 18  2  0
 19 20  1  0
 18  9  1  0
 20  7  2  0
  9  8  2  0
  7  8  1  0
  7 10  1  0
 21 10  1  0
 21  1  1  0
 10  6  2  0
  1  2  1  0
  4  2  2  0
  2 22  1  0
 22 23  1  0
  1 24  1  0
  8 25  1  0
  9 26  1  0
 12 27  1  0
 12 28  1  0
 12 29  1  0
 13 30  1  0
 13 31  1  0
 13 32  1  0
 14 33  1  0
 14 34  1  0
 14 35  1  0
 15 36  1  0
 15 37  1  0
 17 38  1  0
 17 39  1  0
 19 40  1  0
 20 41  1  0
 21 42  1  0
 22 43  1  0
 23 44  1  0
A    1
C1
A    2
C2
A    3
C3
A    4
O1
A    5
O2
A    6
O3
A    7
C11
A    8
C12
A    9
C13
A   10
C14
A   11
C15
A   12
C16
A   13
C4
A   14
C5
A   15
N1
A   16
C6
A   17
C7
A   18
C8
A   19
C9
A   20
C10
A   21
N2
A   22
N3
A   23
O4
M  END
