5U3R_7V1_A_502
     RDKit          3D

 64 66  0  0  0  0  0  0  0  0999 V2000
  -18.7570    1.6580  131.6050 C   0  0  0  0  0  0  0  0  0  0  0  0
  -19.4330    2.8590  131.7510 C   0  0  0  0  0  0  0  0  0  0  0  0
  -18.7980    4.1030  132.2830 C   0  0  0  0  0  0  0  0  0  0  0  0
  -22.7660    4.3930  131.3000 C   0  0  0  0  0  0  0  0  0  0  0  0
  -23.2480    5.7480  131.8170 C   0  0  0  0  0  0  0  0  0  0  0  0
  -23.2670    8.1480  131.3550 C   0  0  0  0  0  0  0  0  0  0  0  0
  -16.7210    4.5740  130.9650 C   0  0  0  0  0  0  0  0  0  0  0  0
  -17.0240    3.5950  134.6740 C   0  0  0  0  0  0  0  0  0  0  0  0
  -16.4960    4.3870  135.6510 C   0  0  0  0  0  0  0  0  0  0  0  0
  -18.0790    2.2340  136.2960 C   0  0  0  0  0  0  0  0  0  0  0  0
  -16.3640    6.0690  131.0310 C   0  0  0  0  0  0  0  0  0  0  0  0
  -17.5440    4.2650  129.7250 C   0  0  0  0  0  0  0  0  0  0  0  0
  -17.3830    3.4150  139.7970 C   0  0  0  0  0  0  0  0  0  0  0  0
  -18.6870    1.7540  140.5270 C   0  0  0  0  0  0  0  0  0  0  0  0
  -17.3550    4.1120  132.2420 N   0  0  0  0  0  0  0  0  0  0  0  0
  -20.7390    2.9940  131.3770 C   0  0  0  0  0  0  0  0  0  0  0  0
  -21.3540    4.2200  131.5520 O   0  0  0  0  0  0  0  0  0  0  0  0
  -21.3730    1.9010  130.8290 C   0  0  0  0  0  0  0  0  0  0  0  0
  -23.4030    8.9670  128.4750 O   0  0  0  0  0  0  0  0  0  0  0  0
  -20.7340    0.6920  130.6880 C   0  0  0  0  0  0  0  0  0  0  0  0
  -22.0390   10.5760  128.8430 O   0  0  0  0  0  0  0  0  0  0  0  0
  -19.4080    0.5520  131.0690 C   0  0  0  0  0  0  0  0  0  0  0  0
  -15.3320    4.0070  133.0950 O   0  0  0  0  0  0  0  0  0  0  0  0
  -18.6360    1.7140  139.1460 O   0  0  0  0  0  0  0  0  0  0  0  0
  -22.5470    6.8580  131.0910 C   0  0  0  0  0  0  0  0  0  0  0  0
  -22.5680    9.3550  130.8080 C   0  0  0  0  0  0  0  0  0  0  0  0
  -22.7090    9.6290  129.2860 C   0  0  0  0  0  0  0  0  0  0  0  0
  -16.5620    3.8990  133.2490 C   0  0  0  0  0  0  0  0  0  0  0  0
  -17.8130    2.5210  134.9610 C   0  0  0  0  0  0  0  0  0  0  0  0
  -16.8080    4.1510  136.9960 C   0  0  0  0  0  0  0  0  0  0  0  0
  -17.5990    3.0610  137.2990 C   0  0  0  0  0  0  0  0  0  0  0  0
  -17.8940    2.7560  138.7170 C   0  0  0  0  0  0  0  0  0  0  0  0
  -17.9030    2.8060  140.9240 C   0  0  0  0  0  0  0  0  0  0  0  0
  -17.7041    1.5794  131.9135 H   0  0  0  0  0  0  0  0  0  0  0  0
  -19.1624    4.9540  131.6889 H   0  0  0  0  0  0  0  0  0  0  0  0
  -19.0777    4.1632  133.3451 H   0  0  0  0  0  0  0  0  0  0  0  0
  -22.9487    4.3346  130.2169 H   0  0  0  0  0  0  0  0  0  0  0  0
  -23.3175    3.5991  131.8249 H   0  0  0  0  0  0  0  0  0  0  0  0
  -23.0322    5.8242  132.8929 H   0  0  0  0  0  0  0  0  0  0  0  0
  -24.3310    5.8337  131.6445 H   0  0  0  0  0  0  0  0  0  0  0  0
  -23.3703    8.2708  132.4432 H   0  0  0  0  0  0  0  0  0  0  0  0
  -24.2388    8.0822  130.8439 H   0  0  0  0  0  0  0  0  0  0  0  0
  -15.7935    3.9912  130.8647 H   0  0  0  0  0  0  0  0  0  0  0  0
  -15.8227    5.2141  135.3817 H   0  0  0  0  0  0  0  0  0  0  0  0
  -18.6735    1.3460  136.5568 H   0  0  0  0  0  0  0  0  0  0  0  0
  -16.2892    6.3820  132.0829 H   0  0  0  0  0  0  0  0  0  0  0  0
  -15.4002    6.2383  130.5287 H   0  0  0  0  0  0  0  0  0  0  0  0
  -17.1473    6.6556  130.5287 H   0  0  0  0  0  0  0  0  0  0  0  0
  -18.5346    3.8931  130.0257 H   0  0  0  0  0  0  0  0  0  0  0  0
  -17.6622    5.1800  129.1260 H   0  0  0  0  0  0  0  0  0  0  0  0
  -17.0308    3.4983  129.1260 H   0  0  0  0  0  0  0  0  0  0  0  0
  -16.6893    4.2684  139.7751 H   0  0  0  0  0  0  0  0  0  0  0  0
  -19.2492    1.0721  141.1819 H   0  0  0  0  0  0  0  0  0  0  0  0
  -22.4168    1.9979  130.4958 H   0  0  0  0  0  0  0  0  0  0  0  0
  -21.2773   -0.1687  130.2708 H   0  0  0  0  0  0  0  0  0  0  0  0
  -21.5953   11.2032  129.4674 H   0  0  0  0  0  0  0  0  0  0  0  0
  -18.8849   -0.4084  130.9504 H   0  0  0  0  0  0  0  0  0  0  0  0
  -22.5477    6.6500  130.0108 H   0  0  0  0  0  0  0  0  0  0  0  0
  -21.5080    6.9341  131.4441 H   0  0  0  0  0  0  0  0  0  0  0  0
  -21.4956    9.2433  131.0260 H   0  0  0  0  0  0  0  0  0  0  0  0
  -23.0570   10.2109  131.2962 H   0  0  0  0  0  0  0  0  0  0  0  0
  -18.2291    1.8966  134.1567 H   0  0  0  0  0  0  0  0  0  0  0  0
  -16.4333    4.8155  137.7885 H   0  0  0  0  0  0  0  0  0  0  0  0
  -17.7187    3.1138  141.9639 H   0  0  0  0  0  0  0  0  0  0  0  0
 19 27  2  0
 21 27  1  0
 27 26  1  0
 12  7  1  0
 20 18  2  0
 20 22  1  0
 26  6  1  0
 18 16  1  0
  7 11  1  0
  7 15  1  0
 25  6  1  0
 25  5  1  0
 22  1  2  0
  4 17  1  0
  4  5  1  0
 16 17  1  0
 16  2  2  0
  1  2  1  0
  2  3  1  0
 15  3  1  0
 15 28  1  0
 23 28  2  0
 28  8  1  0
  8 29  1  0
  8  9  2  0
 29 10  2  0
  9 30  1  0
 10 31  1  0
 30 31  2  0
 31 32  1  0
 32 24  1  0
 32 13  2  0
 24 14  1  0
 13 33  1  0
 14 33  2  0
  1 34  1  0
  3 35  1  0
  3 36  1  0
  4 37  1  0
  4 38  1  0
  5 39  1  0
  5 40  1  0
  6 41  1  0
  6 42  1  0
  7 43  1  0
  9 44  1  0
 10 45  1  0
 11 46  1  0
 11 47  1  0
 11 48  1  0
 12 49  1  0
 12 50  1  0
 12 51  1  0
 13 52  1  0
 14 53  1  0
 18 54  1  0
 20 55  1  0
 21 56  1  0
 22 57  1  0
 25 58  1  0
 25 59  1  0
 26 60  1  0
 26 61  1  0
 29 62  1  0
 30 63  1  0
 33 64  1  0
A    1
C4
A    2
C5
A    3
C6
A    4
C7
A    5
C8
A    6
C10
A    7
C13
A    8
C15
A    9
C17
A   10
C20
A   11
C21
A   12
C22
A   13
C24
A   14
C26
A   15
N
A   16
C
A   17
O
A   18
C1
A   19
O1
A   20
C2
A   21
O2
A   22
C3
A   23
O3
A   24
O4
A   25
C9
A   26
C11
A   27
C12
A   28
C14
A   29
C16
A   30
C18
A   31
C19
A   32
C23
A   33
C25
M  END
