5U3Y_7U7_A_502
     RDKit          3D

 62 65  0  0  0  0  0  0  0  0999 V2000
  -17.2030    1.5990  131.5530 C   0  0  0  0  0  0  0  0  0  0  0  0
  -17.9180    2.7870  131.6930 C   0  0  0  0  0  0  0  0  0  0  0  0
  -17.2900    4.0150  132.3130 C   0  0  0  0  0  0  0  0  0  0  0  0
  -21.2320    4.2330  130.9630 C   0  0  0  0  0  0  0  0  0  0  0  0
  -21.7870    5.5480  131.4830 C   0  0  0  0  0  0  0  0  0  0  0  0
  -21.9090    7.9820  131.0420 C   0  0  0  0  0  0  0  0  0  0  0  0
  -15.2480    4.0690  130.9150 C   0  0  0  0  0  0  0  0  0  0  0  0
  -15.4280    3.4020  134.6650 C   0  0  0  0  0  0  0  0  0  0  0  0
  -14.8930    4.1200  135.7250 C   0  0  0  0  0  0  0  0  0  0  0  0
  -16.6940    2.0730  136.2280 C   0  0  0  0  0  0  0  0  0  0  0  0
  -16.5620    2.4580  138.6820 C   0  0  0  0  0  0  0  0  0  0  0  0
  -16.0780    4.5620  129.7290 C   0  0  0  0  0  0  0  0  0  0  0  0
  -16.1880    3.1250  139.8370 C   0  0  0  0  0  0  0  0  0  0  0  0
  -17.4640    1.3940  140.4200 C   0  0  0  0  0  0  0  0  0  0  0  0
  -15.8350    3.9320  132.2540 N   0  0  0  0  0  0  0  0  0  0  0  0
  -19.2310    2.8600  131.2630 C   0  0  0  0  0  0  0  0  0  0  0  0
  -19.8960    4.0490  131.4200 O   0  0  0  0  0  0  0  0  0  0  0  0
  -19.8350    1.7430  130.6900 C   0  0  0  0  0  0  0  0  0  0  0  0
  -20.0050   10.1830  128.9010 O   0  0  0  0  0  0  0  0  0  0  0  0
  -19.1230    0.5630  130.5540 C   0  0  0  0  0  0  0  0  0  0  0  0
  -21.8540    9.0790  128.4910 O   0  0  0  0  0  0  0  0  0  0  0  0
  -17.8080    0.4860  130.9860 C   0  0  0  0  0  0  0  0  0  0  0  0
  -13.7850    3.8090  133.0790 O   0  0  0  0  0  0  0  0  0  0  0  0
  -17.3370    1.3890  139.0440 O   0  0  0  0  0  0  0  0  0  0  0  0
  -21.0170    6.7510  130.9550 C   0  0  0  0  0  0  0  0  0  0  0  0
  -21.1490    9.2730  130.7650 C   0  0  0  0  0  0  0  0  0  0  0  0
  -20.9930    9.5210  129.2810 C   0  0  0  0  0  0  0  0  0  0  0  0
  -14.9880    3.7350  133.2660 C   0  0  0  0  0  0  0  0  0  0  0  0
  -16.3220    2.3690  134.9230 C   0  0  0  0  0  0  0  0  0  0  0  0
  -15.2610    3.8250  137.0320 C   0  0  0  0  0  0  0  0  0  0  0  0
  -16.1680    2.8020  137.2860 C   0  0  0  0  0  0  0  0  0  0  0  0
  -15.2770    5.5530  130.5620 C   0  0  0  0  0  0  0  0  0  0  0  0
  -16.7510    2.4670  140.9110 C   0  0  0  0  0  0  0  0  0  0  0  0
  -16.1581    1.5434  131.8922 H   0  0  0  0  0  0  0  0  0  0  0  0
  -17.6238    4.9081  131.7644 H   0  0  0  0  0  0  0  0  0  0  0  0
  -17.5995    4.0784  133.3667 H   0  0  0  0  0  0  0  0  0  0  0  0
  -21.2417    4.2439  129.8631 H   0  0  0  0  0  0  0  0  0  0  0  0
  -21.8561    3.4073  131.3355 H   0  0  0  0  0  0  0  0  0  0  0  0
  -21.7298    5.5461  132.5815 H   0  0  0  0  0  0  0  0  0  0  0  0
  -22.8266    5.6352  131.1343 H   0  0  0  0  0  0  0  0  0  0  0  0
  -22.3389    8.0356  132.0531 H   0  0  0  0  0  0  0  0  0  0  0  0
  -22.6913    7.8832  130.2750 H   0  0  0  0  0  0  0  0  0  0  0  0
  -14.5621    3.2117  130.9828 H   0  0  0  0  0  0  0  0  0  0  0  0
  -14.1728    4.9281  135.5293 H   0  0  0  0  0  0  0  0  0  0  0  0
  -17.4073    1.2588  136.4238 H   0  0  0  0  0  0  0  0  0  0  0  0
  -17.1765    4.5567  129.7864 H   0  0  0  0  0  0  0  0  0  0  0  0
  -16.1327    4.3102  128.6596 H   0  0  0  0  0  0  0  0  0  0  0  0
  -15.5534    4.0220  139.8888 H   0  0  0  0  0  0  0  0  0  0  0  0
  -18.0343    0.6687  141.0189 H   0  0  0  0  0  0  0  0  0  0  0  0
  -20.8782    1.7983  130.3454 H   0  0  0  0  0  0  0  0  0  0  0  0
  -19.3965   10.5907  129.5670 H   0  0  0  0  0  0  0  0  0  0  0  0
  -19.6030   -0.3171  130.1012 H   0  0  0  0  0  0  0  0  0  0  0  0
  -17.2462   -0.4537  130.8798 H   0  0  0  0  0  0  0  0  0  0  0  0
  -20.7303    6.5756  129.9076 H   0  0  0  0  0  0  0  0  0  0  0  0
  -20.1080    6.9053  131.5549 H   0  0  0  0  0  0  0  0  0  0  0  0
  -20.1508    9.2045  131.2222 H   0  0  0  0  0  0  0  0  0  0  0  0
  -21.7220   10.1080  131.1946 H   0  0  0  0  0  0  0  0  0  0  0  0
  -16.7368    1.7832  134.0894 H   0  0  0  0  0  0  0  0  0  0  0  0
  -14.8345    4.4011  137.8664 H   0  0  0  0  0  0  0  0  0  0  0  0
  -14.3843    6.0338  130.1356 H   0  0  0  0  0  0  0  0  0  0  0  0
  -15.5141    6.4770  131.1098 H   0  0  0  0  0  0  0  0  0  0  0  0
  -16.6492    2.7482  141.9696 H   0  0  0  0  0  0  0  0  0  0  0  0
 21 27  2  0
 19 27  1  0
 27 26  1  0
 12 32  1  0
 12  7  1  0
 20 18  2  0
 20 22  1  0
 32  7  1  0
 18 16  1  0
 26  6  1  0
  7 15  1  0
 25  6  1  0
 25  5  1  0
  4 17  1  0
  4  5  1  0
 22  1  2  0
 16 17  1  0
 16  2  2  0
  1  2  1  0
  2  3  1  0
 15  3  1  0
 15 28  1  0
 23 28  2  0
 28  8  1  0
  8 29  1  0
  8  9  2  0
 29 10  2  0
  9 30  1  0
 10 31  1  0
 30 31  2  0
 31 11  1  0
 11 24  1  0
 11 13  2  0
 24 14  1  0
 13 33  1  0
 14 33  2  0
  1 34  1  0
  3 35  1  0
  3 36  1  0
  4 37  1  0
  4 38  1  0
  5 39  1  0
  5 40  1  0
  6 41  1  0
  6 42  1  0
  7 43  1  0
  9 44  1  0
 10 45  1  0
 12 46  1  0
 12 47  1  0
 13 48  1  0
 14 49  1  0
 18 50  1  0
 19 51  1  0
 20 52  1  0
 22 53  1  0
 25 54  1  0
 25 55  1  0
 26 56  1  0
 26 57  1  0
 29 58  1  0
 30 59  1  0
 32 60  1  0
 32 61  1  0
 33 62  1  0
A    1
C4
A    2
C5
A    3
C6
A    4
C7
A    5
C8
A    6
C10
A    7
C13
A    8
C15
A    9
C17
A   10
C20
A   11
C21
A   12
C22
A   13
C24
A   14
C26
A   15
N
A   16
C
A   17
O
A   18
C1
A   19
O1
A   20
C2
A   21
O2
A   22
C3
A   23
O3
A   24
O4
A   25
C9
A   26
C11
A   27
C12
A   28
C14
A   29
C16
A   30
C18
A   31
C19
A   32
C23
A   33
C25
M  END
