5U40_7UD_A_501
     RDKit          3D

 68 71  0  0  0  0  0  0  0  0999 V2000
   31.3210    4.1020  226.4950 C   0  0  0  0  0  0  0  0  0  0  0  0
   31.8830    2.8510  226.7340 C   0  0  0  0  0  0  0  0  0  0  0  0
   31.0210    1.6790  227.1550 C   0  0  0  0  0  0  0  0  0  0  0  0
   35.2020    1.2310  226.9160 C   0  0  0  0  0  0  0  0  0  0  0  0
   35.5140   -0.1620  227.4450 C   0  0  0  0  0  0  0  0  0  0  0  0
   35.4540   -2.6020  226.9810 C   0  0  0  0  0  0  0  0  0  0  0  0
   29.4770    1.4580  225.2560 C   0  0  0  0  0  0  0  0  0  0  0  0
   28.6860    2.4340  228.9050 C   0  0  0  0  0  0  0  0  0  0  0  0
   27.9420    1.6380  229.7620 C   0  0  0  0  0  0  0  0  0  0  0  0
   29.4590    3.7080  230.8030 C   0  0  0  0  0  0  0  0  0  0  0  0
   29.6080    2.6640  224.3460 C   0  0  0  0  0  0  0  0  0  0  0  0
   28.7230    3.1460  233.1330 C   0  0  0  0  0  0  0  0  0  0  0  0
   28.7810    4.7660  223.4990 C   0  0  0  0  0  0  0  0  0  0  0  0
   30.8510    3.8700  222.6640 C   0  0  0  0  0  0  0  0  0  0  0  0
   27.9910    2.4520  234.0850 C   0  0  0  0  0  0  0  0  0  0  0  0
   27.4920    2.2330  226.9380 O   0  0  0  0  0  0  0  0  0  0  0  0
   28.6040    2.1460  227.4290 C   0  0  0  0  0  0  0  0  0  0  0  0
   27.9570    1.8640  231.1320 C   0  0  0  0  0  0  0  0  0  0  0  0
   28.7210    2.8970  231.6590 C   0  0  0  0  0  0  0  0  0  0  0  0
   29.4250    4.1390  233.7990 C   0  0  0  0  0  0  0  0  0  0  0  0
   29.1380    4.0430  235.1480 O   0  0  0  0  0  0  0  0  0  0  0  0
   28.2540    3.0010  235.3240 C   0  0  0  0  0  0  0  0  0  0  0  0
   29.4420    3.4780  229.4290 C   0  0  0  0  0  0  0  0  0  0  0  0
   29.6480    1.7960  226.6720 N   0  0  0  0  0  0  0  0  0  0  0  0
   30.7130    2.7700  223.5040 C   0  0  0  0  0  0  0  0  0  0  0  0
   29.8840    4.8690  222.6600 C   0  0  0  0  0  0  0  0  0  0  0  0
   28.6430    3.6690  224.3430 C   0  0  0  0  0  0  0  0  0  0  0  0
   32.1240    5.1660  226.1100 C   0  0  0  0  0  0  0  0  0  0  0  0
   33.4900    4.9810  225.9690 C   0  0  0  0  0  0  0  0  0  0  0  0
   34.0550    3.7370  226.2110 C   0  0  0  0  0  0  0  0  0  0  0  0
   33.2490    2.6690  226.5990 C   0  0  0  0  0  0  0  0  0  0  0  0
   33.7890    1.4300  226.8460 O   0  0  0  0  0  0  0  0  0  0  0  0
   34.8670   -1.2500  226.5980 C   0  0  0  0  0  0  0  0  0  0  0  0
   34.6300   -3.7600  226.4350 C   0  0  0  0  0  0  0  0  0  0  0  0
   34.8560   -3.9640  224.9530 C   0  0  0  0  0  0  0  0  0  0  0  0
   33.8850   -4.3340  224.2590 O   0  0  0  0  0  0  0  0  0  0  0  0
   35.9960   -3.7790  224.4730 O   0  0  0  0  0  0  0  0  0  0  0  0
   30.2369    4.2474  226.6117 H   0  0  0  0  0  0  0  0  0  0  0  0
   31.0058    1.6283  228.2537 H   0  0  0  0  0  0  0  0  0  0  0  0
   31.4547    0.7687  226.7154 H   0  0  0  0  0  0  0  0  0  0  0  0
   35.6344    1.3426  225.9107 H   0  0  0  0  0  0  0  0  0  0  0  0
   35.6351    1.9778  227.5977 H   0  0  0  0  0  0  0  0  0  0  0  0
   35.1383   -0.2433  228.4756 H   0  0  0  0  0  0  0  0  0  0  0  0
   36.6041   -0.3043  227.4076 H   0  0  0  0  0  0  0  0  0  0  0  0
   35.4869   -2.6764  228.0780 H   0  0  0  0  0  0  0  0  0  0  0  0
   36.4620   -2.6690  226.5458 H   0  0  0  0  0  0  0  0  0  0  0  0
   28.4778    1.0194  225.1172 H   0  0  0  0  0  0  0  0  0  0  0  0
   30.2737    0.7496  224.9852 H   0  0  0  0  0  0  0  0  0  0  0  0
   27.3332    0.8185  229.3524 H   0  0  0  0  0  0  0  0  0  0  0  0
   30.0585    4.5343  231.2126 H   0  0  0  0  0  0  0  0  0  0  0  0
   28.0143    5.5548  223.4957 H   0  0  0  0  0  0  0  0  0  0  0  0
   31.7260    3.9496  222.0022 H   0  0  0  0  0  0  0  0  0  0  0  0
   27.3152    1.6071  233.8863 H   0  0  0  0  0  0  0  0  0  0  0  0
   27.3629    1.2239  231.8008 H   0  0  0  0  0  0  0  0  0  0  0  0
   30.0954    4.8767  233.3338 H   0  0  0  0  0  0  0  0  0  0  0  0
   27.8321    2.6656  236.2829 H   0  0  0  0  0  0  0  0  0  0  0  0
   30.0274    4.1230  228.7572 H   0  0  0  0  0  0  0  0  0  0  0  0
   31.4792    1.9807  223.5035 H   0  0  0  0  0  0  0  0  0  0  0  0
   29.9917    5.7383  221.9947 H   0  0  0  0  0  0  0  0  0  0  0  0
   27.7707    3.5948  225.0091 H   0  0  0  0  0  0  0  0  0  0  0  0
   31.6778    6.1528  225.9174 H   0  0  0  0  0  0  0  0  0  0  0  0
   34.1286    5.8232  225.6642 H   0  0  0  0  0  0  0  0  0  0  0  0
   35.1396    3.5940  226.0965 H   0  0  0  0  0  0  0  0  0  0  0  0
   35.0631   -1.0525  225.5338 H   0  0  0  0  0  0  0  0  0  0  0  0
   33.7811   -1.2567  226.7736 H   0  0  0  0  0  0  0  0  0  0  0  0
   33.5640   -3.5498  226.6065 H   0  0  0  0  0  0  0  0  0  0  0  0
   34.9425   -4.6765  226.9568 H   0  0  0  0  0  0  0  0  0  0  0  0
   36.7720   -3.6531  225.0747 H   0  0  0  0  0  0  0  0  0  0  0  0
 26 14  1  0
 26 13  2  0
 14 25  2  0
 13 27  1  0
 25 11  1  0
 36 35  2  0
 27 11  2  0
 11  7  1  0
 37 35  1  0
 35 34  1  0
  7 24  1  0
 29 28  1  0
 29 30  2  0
 28  1  2  0
 30 31  1  0
 34  6  1  0
  1  2  1  0
 33  6  1  0
 33  5  1  0
 31  2  2  0
 31 32  1  0
 24  3  1  0
 24 17  1  0
  2  3  1  0
 32  4  1  0
  4  5  1  0
 16 17  2  0
 17  8  1  0
  8 23  1  0
  8  9  2  0
 23 10  2  0
  9 18  1  0
 10 19  1  0
 18 19  2  0
 19 12  1  0
 12 20  2  0
 12 15  1  0
 20 21  1  0
 15 22  2  0
 21 22  1  0
  1 38  1  0
  3 39  1  0
  3 40  1  0
  4 41  1  0
  4 42  1  0
  5 43  1  0
  5 44  1  0
  6 45  1  0
  6 46  1  0
  7 47  1  0
  7 48  1  0
  9 49  1  0
 10 50  1  0
 13 51  1  0
 14 52  1  0
 15 53  1  0
 18 54  1  0
 20 55  1  0
 22 56  1  0
 23 57  1  0
 25 58  1  0
 26 59  1  0
 27 60  1  0
 28 61  1  0
 29 62  1  0
 30 63  1  0
 33 64  1  0
 33 65  1  0
 34 66  1  0
 34 67  1  0
 37 68  1  0
A    1
C4
A    2
C5
A    3
C6
A    4
C7
A    5
C8
A    6
C10
A    7
C13
A    8
C15
A    9
C17
A   10
C20
A   11
C21
A   12
C22
A   13
C24
A   14
C26
A   15
C28
A   16
O3
A   17
C14
A   18
C18
A   19
C19
A   20
C29
A   21
O4
A   22
C30
A   23
C16
A   24
N
A   25
C27
A   26
C25
A   27
C23
A   28
C3
A   29
C2
A   30
C1
A   31
C
A   32
O
A   33
C9
A   34
C11
A   35
C12
A   36
O1
A   37
O2
M  END
