5U41_7UG_A_501
     RDKit          3D

 68 71  0  0  0  0  0  0  0  0999 V2000
   -5.3320    4.1620  226.7370 C   0  0  0  0  0  0  0  0  0  0  0  0
   -4.7620    2.9200  226.9920 C   0  0  0  0  0  0  0  0  0  0  0  0
   -5.5900    1.7370  227.4370 C   0  0  0  0  0  0  0  0  0  0  0  0
   -1.4990    1.1980  226.9540 C   0  0  0  0  0  0  0  0  0  0  0  0
   -1.2030   -0.1390  227.6170 C   0  0  0  0  0  0  0  0  0  0  0  0
   -1.0600   -2.5750  227.2060 C   0  0  0  0  0  0  0  0  0  0  0  0
   -7.1290    1.4960  225.5240 C   0  0  0  0  0  0  0  0  0  0  0  0
   -7.9590    2.3890  229.1810 C   0  0  0  0  0  0  0  0  0  0  0  0
   -8.7220    1.6250  230.0490 C   0  0  0  0  0  0  0  0  0  0  0  0
   -7.1950    3.7100  231.0480 C   0  0  0  0  0  0  0  0  0  0  0  0
   -7.0710    2.7060  224.6110 C   0  0  0  0  0  0  0  0  0  0  0  0
   -7.9610    3.2400  233.3800 C   0  0  0  0  0  0  0  0  0  0  0  0
   -7.9560    4.8170  223.8530 C   0  0  0  0  0  0  0  0  0  0  0  0
   -5.9880    3.9060  222.8100 C   0  0  0  0  0  0  0  0  0  0  0  0
   -8.9380    2.7490  234.2750 C   0  0  0  0  0  0  0  0  0  0  0  0
   -9.1360    2.0910  227.2190 O   0  0  0  0  0  0  0  0  0  0  0  0
   -8.0210    2.0780  227.7100 C   0  0  0  0  0  0  0  0  0  0  0  0
   -8.7210    1.8920  231.4100 C   0  0  0  0  0  0  0  0  0  0  0  0
   -7.9510    2.9320  231.9190 C   0  0  0  0  0  0  0  0  0  0  0  0
   -7.0410    4.0830  234.0050 C   0  0  0  0  0  0  0  0  0  0  0  0
   -7.3880    4.2240  235.6900 S   0  0  0  0  0  0  0  0  0  0  0  0
   -8.7610    3.1860  235.5830 C   0  0  0  0  0  0  0  0  0  0  0  0
   -7.2020    3.4420  229.6860 C   0  0  0  0  0  0  0  0  0  0  0  0
   -6.9620    1.8030  226.9460 N   0  0  0  0  0  0  0  0  0  0  0  0
   -6.0560    2.8060  223.6620 C   0  0  0  0  0  0  0  0  0  0  0  0
   -6.9400    4.9150  222.9060 C   0  0  0  0  0  0  0  0  0  0  0  0
   -8.0180    3.7160  224.7040 C   0  0  0  0  0  0  0  0  0  0  0  0
   -4.5350    5.2210  226.3250 C   0  0  0  0  0  0  0  0  0  0  0  0
   -3.1720    5.0350  226.1690 C   0  0  0  0  0  0  0  0  0  0  0  0
   -2.6020    3.8000  226.4230 C   0  0  0  0  0  0  0  0  0  0  0  0
   -3.4000    2.7430  226.8380 C   0  0  0  0  0  0  0  0  0  0  0  0
   -2.8820    1.5050  227.0970 O   0  0  0  0  0  0  0  0  0  0  0  0
   -1.8300   -1.3060  226.8650 C   0  0  0  0  0  0  0  0  0  0  0  0
   -1.7740   -3.8230  226.7080 C   0  0  0  0  0  0  0  0  0  0  0  0
   -1.7490   -3.8810  225.2000 C   0  0  0  0  0  0  0  0  0  0  0  0
   -2.8060   -4.1630  224.5930 O   0  0  0  0  0  0  0  0  0  0  0  0
   -0.6680   -3.6580  224.6160 O   0  0  0  0  0  0  0  0  0  0  0  0
   -6.4154    4.3056  226.8618 H   0  0  0  0  0  0  0  0  0  0  0  0
   -5.6090    1.7126  228.5366 H   0  0  0  0  0  0  0  0  0  0  0  0
   -5.1283    0.8290  227.0219 H   0  0  0  0  0  0  0  0  0  0  0  0
   -1.2450    1.1411  225.8852 H   0  0  0  0  0  0  0  0  0  0  0  0
   -0.8981    1.9849  227.4333 H   0  0  0  0  0  0  0  0  0  0  0  0
   -1.6026   -0.1223  228.6417 H   0  0  0  0  0  0  0  0  0  0  0  0
   -0.1124   -0.2828  227.6146 H   0  0  0  0  0  0  0  0  0  0  0  0
   -0.9489   -2.6409  228.2984 H   0  0  0  0  0  0  0  0  0  0  0  0
   -0.0795   -2.5224  226.7102 H   0  0  0  0  0  0  0  0  0  0  0  0
   -8.1066    1.0099  225.3894 H   0  0  0  0  0  0  0  0  0  0  0  0
   -6.2858    0.8486  225.2413 H   0  0  0  0  0  0  0  0  0  0  0  0
   -9.3337    0.7998  229.6555 H   0  0  0  0  0  0  0  0  0  0  0  0
   -6.5895    4.5405  231.4400 H   0  0  0  0  0  0  0  0  0  0  0  0
   -8.7125    5.6119  223.9294 H   0  0  0  0  0  0  0  0  0  0  0  0
   -5.1834    3.9762  222.0633 H   0  0  0  0  0  0  0  0  0  0  0  0
   -9.7592    2.0852  233.9667 H   0  0  0  0  0  0  0  0  0  0  0  0
   -9.3315    1.2789  232.0892 H   0  0  0  0  0  0  0  0  0  0  0  0
   -6.2085    4.5885  233.4937 H   0  0  0  0  0  0  0  0  0  0  0  0
   -9.4057    2.9088  236.4300 H   0  0  0  0  0  0  0  0  0  0  0  0
   -6.6063    4.0649  229.0025 H   0  0  0  0  0  0  0  0  0  0  0  0
   -5.3015    2.0092  223.5848 H   0  0  0  0  0  0  0  0  0  0  0  0
   -6.8906    5.7866  222.2368 H   0  0  0  0  0  0  0  0  0  0  0  0
   -8.8209    3.6469  225.4528 H   0  0  0  0  0  0  0  0  0  0  0  0
   -4.9846    6.2044  226.1232 H   0  0  0  0  0  0  0  0  0  0  0  0
   -2.5391    5.8730  225.8416 H   0  0  0  0  0  0  0  0  0  0  0  0
   -1.5188    3.6563  226.2963 H   0  0  0  0  0  0  0  0  0  0  0  0
   -1.7769   -1.1202  225.7821 H   0  0  0  0  0  0  0  0  0  0  0  0
   -2.8848   -1.4172  227.1566 H   0  0  0  0  0  0  0  0  0  0  0  0
   -2.8186   -3.8039  227.0521 H   0  0  0  0  0  0  0  0  0  0  0  0
   -1.2593   -4.7098  227.1064 H   0  0  0  0  0  0  0  0  0  0  0  0
    0.1532   -3.4886  225.1423 H   0  0  0  0  0  0  0  0  0  0  0  0
 14 26  1  0
 14 25  2  0
 26 13  2  0
 25 11  1  0
 13 27  1  0
 36 35  2  0
 11 27  2  0
 11  7  1  0
 37 35  1  0
 35 34  1  0
  7 24  1  0
 29 28  1  0
 29 30  2  0
 28  1  2  0
 30 31  1  0
 34  6  1  0
  1  2  1  0
 31  2  2  0
 31 32  1  0
 33  6  1  0
 33  5  1  0
 24  3  1  0
 24 17  1  0
  2  3  1  0
  4 32  1  0
  4  5  1  0
 16 17  2  0
 17  8  1  0
  8 23  1  0
  8  9  2  0
 23 10  2  0
  9 18  1  0
 10 19  1  0
 18 19  2  0
 19 12  1  0
 12 20  2  0
 12 15  1  0
 20 21  1  0
 15 22  2  0
 22 21  1  0
  1 38  1  0
  3 39  1  0
  3 40  1  0
  4 41  1  0
  4 42  1  0
  5 43  1  0
  5 44  1  0
  6 45  1  0
  6 46  1  0
  7 47  1  0
  7 48  1  0
  9 49  1  0
 10 50  1  0
 13 51  1  0
 14 52  1  0
 15 53  1  0
 18 54  1  0
 20 55  1  0
 22 56  1  0
 23 57  1  0
 25 58  1  0
 26 59  1  0
 27 60  1  0
 28 61  1  0
 29 62  1  0
 30 63  1  0
 33 64  1  0
 33 65  1  0
 34 66  1  0
 34 67  1  0
 37 68  1  0
A    1
C4
A    2
C5
A    3
C6
A    4
C7
A    5
C8
A    6
C10
A    7
C13
A    8
C15
A    9
C17
A   10
C20
A   11
C21
A   12
C22
A   13
C24
A   14
C26
A   15
C28
A   16
O3
A   17
C14
A   18
C18
A   19
C19
A   20
C29
A   21
S
A   22
C30
A   23
C16
A   24
N
A   25
C27
A   26
C25
A   27
C23
A   28
C3
A   29
C2
A   30
C1
A   31
C
A   32
O
A   33
C9
A   34
C11
A   35
C12
A   36
O1
A   37
O2
M  END
