5U44_7SV_A_504
     RDKit          3D

 65 68  0  0  0  0  0  0  0  0999 V2000
   43.9430    1.3560  131.9780 C   0  0  0  0  0  0  0  0  0  0  0  0
   42.8580    3.8020  131.2160 C   0  0  0  0  0  0  0  0  0  0  0  0
   42.5690    1.5600  132.0450 C   0  0  0  0  0  0  0  0  0  0  0  0
   39.0040    0.8840  134.0870 C   0  0  0  0  0  0  0  0  0  0  0  0
   38.3580   -0.0380  134.9050 C   0  0  0  0  0  0  0  0  0  0  0  0
   38.2990    0.1700  136.2810 C   0  0  0  0  0  0  0  0  0  0  0  0
   38.7980    1.4930  138.2600 C   0  0  0  0  0  0  0  0  0  0  0  0
   37.5630    1.0610  140.2970 C   0  0  0  0  0  0  0  0  0  0  0  0
   39.5500    2.4040  140.3680 C   0  0  0  0  0  0  0  0  0  0  0  0
   45.4700   -5.3150  129.6010 O   0  0  0  0  0  0  0  0  0  0  0  0
   46.3740   -5.2670  130.4760 C   0  0  0  0  0  0  0  0  0  0  0  0
   47.5820   -5.3050  130.1160 O   0  0  0  0  0  0  0  0  0  0  0  0
   46.0160   -5.1520  131.9670 C   0  0  0  0  0  0  0  0  0  0  0  0
   46.6070   -3.8650  132.5870 C   0  0  0  0  0  0  0  0  0  0  0  0
   45.7960   -2.6100  132.1960 C   0  0  0  0  0  0  0  0  0  0  0  0
   46.0840   -1.4290  133.1560 C   0  0  0  0  0  0  0  0  0  0  0  0
   45.8430   -0.0600  132.4730 C   0  0  0  0  0  0  0  0  0  0  0  0
   44.4380    0.0880  132.3790 O   0  0  0  0  0  0  0  0  0  0  0  0
   44.7790    2.3770  131.5300 C   0  0  0  0  0  0  0  0  0  0  0  0
   44.2350    3.5990  131.1500 C   0  0  0  0  0  0  0  0  0  0  0  0
   42.0220    2.7810  131.6620 C   0  0  0  0  0  0  0  0  0  0  0  0
   41.6660    0.3970  132.5500 C   0  0  0  0  0  0  0  0  0  0  0  0
   40.3630    0.4280  131.8290 N   0  0  0  0  0  0  0  0  0  0  0  0
   39.0760    0.6670  132.5440 C   0  0  0  0  0  0  0  0  0  0  0  0
   38.0650    0.6920  131.9170 O   0  0  0  0  0  0  0  0  0  0  0  0
   38.8860    1.2980  136.8570 C   0  0  0  0  0  0  0  0  0  0  0  0
   37.7230    0.9090  138.9260 C   0  0  0  0  0  0  0  0  0  0  0  0
   38.4780    1.8100  141.0190 C   0  0  0  0  0  0  0  0  0  0  0  0
   39.7150    2.2540  138.9930 C   0  0  0  0  0  0  0  0  0  0  0  0
   40.7900    2.8640  138.4070 F   0  0  0  0  0  0  0  0  0  0  0  0
   39.5210    2.2210  136.0290 C   0  0  0  0  0  0  0  0  0  0  0  0
   39.5840    2.0110  134.6540 C   0  0  0  0  0  0  0  0  0  0  0  0
   40.3260    0.2410  130.3490 C   0  0  0  0  0  0  0  0  0  0  0  0
   39.8320   -1.1300  129.8770 C   0  0  0  0  0  0  0  0  0  0  0  0
   41.3130   -0.7590  129.7390 C   0  0  0  0  0  0  0  0  0  0  0  0
   42.4305    4.7700  130.9155 H   0  0  0  0  0  0  0  0  0  0  0  0
   37.8933   -0.9323  134.4643 H   0  0  0  0  0  0  0  0  0  0  0  0
   37.7844   -0.5623  136.9205 H   0  0  0  0  0  0  0  0  0  0  0  0
   36.7118    0.5879  140.8085 H   0  0  0  0  0  0  0  0  0  0  0  0
   40.2756    2.9983  140.9427 H   0  0  0  0  0  0  0  0  0  0  0  0
   48.3008   -5.3276  130.7964 H   0  0  0  0  0  0  0  0  0  0  0  0
   44.9213   -5.1309  132.0724 H   0  0  0  0  0  0  0  0  0  0  0  0
   46.4402   -6.0190  132.4946 H   0  0  0  0  0  0  0  0  0  0  0  0
   46.6024   -3.9639  133.6825 H   0  0  0  0  0  0  0  0  0  0  0  0
   47.6305   -3.7417  132.2033 H   0  0  0  0  0  0  0  0  0  0  0  0
   46.0673   -2.3132  131.1721 H   0  0  0  0  0  0  0  0  0  0  0  0
   44.7257   -2.8555  132.2607 H   0  0  0  0  0  0  0  0  0  0  0  0
   45.4222   -1.5118  134.0307 H   0  0  0  0  0  0  0  0  0  0  0  0
   47.1417   -1.4808  133.4538 H   0  0  0  0  0  0  0  0  0  0  0  0
   46.2964   -0.0479  131.4708 H   0  0  0  0  0  0  0  0  0  0  0  0
   46.2969    0.7616  133.0466 H   0  0  0  0  0  0  0  0  0  0  0  0
   45.8660    2.2167  131.4771 H   0  0  0  0  0  0  0  0  0  0  0  0
   44.8928    4.4068  130.7967 H   0  0  0  0  0  0  0  0  0  0  0  0
   40.9345    2.9391  131.7112 H   0  0  0  0  0  0  0  0  0  0  0  0
   41.4900    0.5123  133.6297 H   0  0  0  0  0  0  0  0  0  0  0  0
   42.1666   -0.5638  132.3595 H   0  0  0  0  0  0  0  0  0  0  0  0
   36.9897    0.3184  138.3573 H   0  0  0  0  0  0  0  0  0  0  0  0
   38.3551    1.9335  142.1051 H   0  0  0  0  0  0  0  0  0  0  0  0
   39.9761    3.1226  136.4648 H   0  0  0  0  0  0  0  0  0  0  0  0
   40.0967    2.7429  134.0125 H   0  0  0  0  0  0  0  0  0  0  0  0
   40.0704    1.2900  130.1385 H   0  0  0  0  0  0  0  0  0  0  0  0
   39.1986   -1.2079  128.9810 H   0  0  0  0  0  0  0  0  0  0  0  0
   39.2776   -1.9592  130.3408 H   0  0  0  0  0  0  0  0  0  0  0  0
   42.0644   -1.2485  130.3760 H   0  0  0  0  0  0  0  0  0  0  0  0
   42.0343   -0.7324  128.9089 H   0  0  0  0  0  0  0  0  0  0  0  0
 10 11  2  0
 35 34  1  0
 35 33  1  0
 34 33  1  0
 12 11  1  0
 33 23  1  0
 11 13  1  0
 20  2  2  0
 20 19  1  0
  2 21  1  0
 19  1  2  0
 21  3  2  0
 23 24  1  0
 23 22  1  0
 25 24  2  0
 13 14  1  0
  1  3  1  0
  1 18  1  0
  3 22  1  0
 15 14  1  0
 15 16  1  0
 18 17  1  0
 17 16  1  0
 24  4  1  0
  4 32  1  0
  4  5  2  0
 32 31  2  0
  5  6  1  0
 31 26  1  0
  6 26  2  0
 26  7  1  0
  7 27  1  0
  7 29  2  0
 30 29  1  0
 27  8  2  0
 29  9  1  0
  8 28  1  0
  9 28  2  0
  2 36  1  0
  5 37  1  0
  6 38  1  0
  8 39  1  0
  9 40  1  0
 12 41  1  0
 13 42  1  0
 13 43  1  0
 14 44  1  0
 14 45  1  0
 15 46  1  0
 15 47  1  0
 16 48  1  0
 16 49  1  0
 17 50  1  0
 17 51  1  0
 19 52  1  0
 20 53  1  0
 21 54  1  0
 22 55  1  0
 22 56  1  0
 27 57  1  0
 28 58  1  0
 31 59  1  0
 32 60  1  0
 33 61  1  0
 34 62  1  0
 34 63  1  0
 35 64  1  0
 35 65  1  0
A    1
C10
A    2
C13
A    3
C15
A    4
C20
A    5
C21
A    6
C22
A    7
C24
A    8
C26
A    9
C28
A   10
O01
A   11
C02
A   12
O03
A   13
C04
A   14
C05
A   15
C06
A   16
C07
A   17
C08
A   18
O09
A   19
C11
A   20
C12
A   21
C14
A   22
C16
A   23
N17
A   24
C18
A   25
O19
A   26
C23
A   27
C25
A   28
C27
A   29
C29
A   30
F30
A   31
C31
A   32
C32
A   33
C33
A   34
C34
A   35
C35
M  END
