5U45_7SY_A_502
     RDKit          3D

 65 68  0  0  0  0  0  0  0  0999 V2000
   41.8730    2.7740  131.9840 C   0  0  0  0  0  0  0  0  0  0  0  0
   42.4690    1.5620  132.3170 C   0  0  0  0  0  0  0  0  0  0  0  0
   41.6230    0.3720  132.7190 C   0  0  0  0  0  0  0  0  0  0  0  0
   45.8010    0.1390  132.9400 C   0  0  0  0  0  0  0  0  0  0  0  0
   46.0960   -1.2230  133.5510 C   0  0  0  0  0  0  0  0  0  0  0  0
   46.1290   -3.6880  133.1850 C   0  0  0  0  0  0  0  0  0  0  0  0
   40.1010    0.2590  130.7530 C   0  0  0  0  0  0  0  0  0  0  0  0
   39.1640    1.0740  134.3550 C   0  0  0  0  0  0  0  0  0  0  0  0
   38.4850    0.2400  135.2220 C   0  0  0  0  0  0  0  0  0  0  0  0
   39.7730    2.4610  136.2270 C   0  0  0  0  0  0  0  0  0  0  0  0
   39.0510    1.9200  138.5920 C   0  0  0  0  0  0  0  0  0  0  0  0
   41.2630   -0.2520  129.8890 C   0  0  0  0  0  0  0  0  0  0  0  0
   39.8300    2.9320  139.1520 C   0  0  0  0  0  0  0  0  0  0  0  0
   38.1500    1.4890  140.8040 C   0  0  0  0  0  0  0  0  0  0  0  0
   39.7760    3.2140  140.5100 C   0  0  0  0  0  0  0  0  0  0  0  0
   40.5430    4.1930  141.0200 F   0  0  0  0  0  0  0  0  0  0  0  0
   38.9360    2.4920  141.3380 C   0  0  0  0  0  0  0  0  0  0  0  0
   38.2070    1.2110  139.4450 C   0  0  0  0  0  0  0  0  0  0  0  0
   39.0980    1.6210  137.1160 C   0  0  0  0  0  0  0  0  0  0  0  0
   39.8050    2.1930  134.8600 C   0  0  0  0  0  0  0  0  0  0  0  0
   38.4480    0.5080  136.5850 C   0  0  0  0  0  0  0  0  0  0  0  0
   39.1570    0.7520  132.8880 C   0  0  0  0  0  0  0  0  0  0  0  0
   38.0690    0.7490  132.3400 O   0  0  0  0  0  0  0  0  0  0  0  0
   40.2620    0.4760  132.2000 N   0  0  0  0  0  0  0  0  0  0  0  0
   40.2670   -1.2380  130.5010 C   0  0  0  0  0  0  0  0  0  0  0  0
   42.6600    3.8600  131.6250 C   0  0  0  0  0  0  0  0  0  0  0  0
   44.0420    3.7370  131.5990 C   0  0  0  0  0  0  0  0  0  0  0  0
   44.6370    2.5300  131.9330 C   0  0  0  0  0  0  0  0  0  0  0  0
   43.8480    1.4420  132.2980 C   0  0  0  0  0  0  0  0  0  0  0  0
   44.4140    0.2400  132.6340 O   0  0  0  0  0  0  0  0  0  0  0  0
   45.7140   -2.3460  132.5980 C   0  0  0  0  0  0  0  0  0  0  0  0
   45.6650   -4.8360  132.3020 C   0  0  0  0  0  0  0  0  0  0  0  0
   46.7080   -5.0950  131.2420 C   0  0  0  0  0  0  0  0  0  0  0  0
   46.6280   -4.4610  130.1720 O   0  0  0  0  0  0  0  0  0  0  0  0
   47.6210   -5.9180  131.4690 O   0  0  0  0  0  0  0  0  0  0  0  0
   40.7776    2.8720  132.0051 H   0  0  0  0  0  0  0  0  0  0  0  0
   41.5825    0.3182  133.8169 H   0  0  0  0  0  0  0  0  0  0  0  0
   42.0826   -0.5335  132.2962 H   0  0  0  0  0  0  0  0  0  0  0  0
   46.3882    0.2605  132.0178 H   0  0  0  0  0  0  0  0  0  0  0  0
   46.0727    0.9261  133.6588 H   0  0  0  0  0  0  0  0  0  0  0  0
   45.5207   -1.3310  134.4823 H   0  0  0  0  0  0  0  0  0  0  0  0
   47.1753   -1.2886  133.7530 H   0  0  0  0  0  0  0  0  0  0  0  0
   45.6805   -3.7981  134.1834 H   0  0  0  0  0  0  0  0  0  0  0  0
   47.2267   -3.7176  133.2503 H   0  0  0  0  0  0  0  0  0  0  0  0
   39.4051    1.0912  130.5707 H   0  0  0  0  0  0  0  0  0  0  0  0
   37.9672   -0.6472  134.8286 H   0  0  0  0  0  0  0  0  0  0  0  0
   40.2896    3.3518  136.6139 H   0  0  0  0  0  0  0  0  0  0  0  0
   42.2942   -0.2039  130.2688 H   0  0  0  0  0  0  0  0  0  0  0  0
   41.6286   -0.0436  128.8727 H   0  0  0  0  0  0  0  0  0  0  0  0
   40.4999    3.5178  138.5054 H   0  0  0  0  0  0  0  0  0  0  0  0
   37.4788    0.9105  141.4559 H   0  0  0  0  0  0  0  0  0  0  0  0
   38.8939    2.7147  142.4144 H   0  0  0  0  0  0  0  0  0  0  0  0
   37.5719    0.4134  139.0322 H   0  0  0  0  0  0  0  0  0  0  0  0
   40.3407    2.8719  134.1802 H   0  0  0  0  0  0  0  0  0  0  0  0
   37.8974   -0.1685  137.2552 H   0  0  0  0  0  0  0  0  0  0  0  0
   39.5522   -1.7687  129.8549 H   0  0  0  0  0  0  0  0  0  0  0  0
   40.3506   -2.1282  131.1418 H   0  0  0  0  0  0  0  0  0  0  0  0
   42.1880    4.8179  131.3612 H   0  0  0  0  0  0  0  0  0  0  0  0
   44.6654    4.5971  131.3134 H   0  0  0  0  0  0  0  0  0  0  0  0
   45.7324    2.4318  131.9097 H   0  0  0  0  0  0  0  0  0  0  0  0
   46.2236   -2.1960  131.6348 H   0  0  0  0  0  0  0  0  0  0  0  0
   44.6244   -2.3381  132.4476 H   0  0  0  0  0  0  0  0  0  0  0  0
   44.7110   -4.5704  131.8232 H   0  0  0  0  0  0  0  0  0  0  0  0
   45.5239   -5.7401  132.9125 H   0  0  0  0  0  0  0  0  0  0  0  0
   47.8669   -6.1397  132.4020 H   0  0  0  0  0  0  0  0  0  0  0  0
 12 25  1  0
 12  7  1  0
 34 33  2  0
 25  7  1  0
  7 24  1  0
 33 35  1  0
 33 32  1  0
 27 26  1  0
 27 28  2  0
 26  1  2  0
 28 29  1  0
  1  2  1  0
 24  3  1  0
 24 22  1  0
 29  2  2  0
 29 30  1  0
 32  6  1  0
  2  3  1  0
 23 22  2  0
 31  6  1  0
 31  5  1  0
 30  4  1  0
 22  8  1  0
  4  5  1  0
  8 20  1  0
  8  9  2  0
 20 10  2  0
  9 21  1  0
 10 19  1  0
 21 19  2  0
 19 11  1  0
 11 13  2  0
 11 18  1  0
 13 15  1  0
 18 14  2  0
 15 16  1  0
 15 17  2  0
 14 17  1  0
  1 36  1  0
  3 37  1  0
  3 38  1  0
  4 39  1  0
  4 40  1  0
  5 41  1  0
  5 42  1  0
  6 43  1  0
  6 44  1  0
  7 45  1  0
  9 46  1  0
 10 47  1  0
 12 48  1  0
 12 49  1  0
 13 50  1  0
 14 51  1  0
 17 52  1  0
 18 53  1  0
 20 54  1  0
 21 55  1  0
 25 56  1  0
 25 57  1  0
 26 58  1  0
 27 59  1  0
 28 60  1  0
 31 61  1  0
 31 62  1  0
 32 63  1  0
 32 64  1  0
 35 65  1  0
A    1
C4
A    2
C5
A    3
C6
A    4
C7
A    5
C8
A    6
C10
A    7
C13
A    8
C15
A    9
C17
A   10
C20
A   11
C21
A   12
C22
A   13
C24
A   14
C26
A   15
C28
A   16
F
A   17
C27
A   18
C25
A   19
C19
A   20
C16
A   21
C18
A   22
C14
A   23
O3
A   24
N
A   25
C23
A   26
C3
A   27
C2
A   28
C1
A   29
C
A   30
O
A   31
C9
A   32
C11
A   33
C12
A   34
O1
A   35
O2
M  END
