5U48_S4B_A_200
     RDKit          3D

 32 33  0  0  0  0  0  0  0  0999 V2000
  -22.5730   -0.9950  -30.6240 C   0  0  0  0  0  0  0  0  0  0  0  0
  -21.6080   -0.1960  -30.0310 C   0  0  0  0  0  0  0  0  0  0  0  0
  -21.5480   -0.0900  -28.6450 C   0  0  0  0  0  0  0  0  0  0  0  0
  -22.4560   -0.7800  -27.8590 C   0  0  0  0  0  0  0  0  0  0  0  0
  -23.4140   -1.5840  -28.4570 C   0  0  0  0  0  0  0  0  0  0  0  0
  -23.4760   -1.6890  -29.8370 C   0  0  0  0  0  0  0  0  0  0  0  0
  -22.4060   -0.6960  -26.3450 C   0  0  0  0  0  0  0  0  0  0  0  0
  -21.4850   -0.0580  -25.6090 C   0  0  0  0  0  0  0  0  0  0  0  0
  -21.4680   -0.0160  -24.0950 C   0  0  0  0  0  0  0  0  0  0  0  0
  -21.1300    1.1420  -23.4160 C   0  0  0  0  0  0  0  0  0  0  0  0
  -21.1200    1.1570  -22.0280 C   0  0  0  0  0  0  0  0  0  0  0  0
  -21.4380    0.0210  -21.3030 C   0  0  0  0  0  0  0  0  0  0  0  0
  -21.7650   -1.1350  -21.9870 C   0  0  0  0  0  0  0  0  0  0  0  0
  -21.7830   -1.1560  -23.3740 C   0  0  0  0  0  0  0  0  0  0  0  0
  -22.0920   -2.2960  -21.2760 O   0  0  0  0  0  0  0  0  0  0  0  0
  -20.7770    2.3360  -21.3540 O   0  0  0  0  0  0  0  0  0  0  0  0
  -23.7670   -1.8170  -32.8650 O   0  0  0  0  0  0  0  0  0  0  0  0
  -21.6240   -0.6040  -33.0900 O   0  0  0  0  0  0  0  0  0  0  0  0
  -22.6590   -1.1420  -32.2670 B   0  0  0  0  0  0  0  0  0  0  0  0
  -20.8895    0.3543  -30.6562 H   0  0  0  0  0  0  0  0  0  0  0  0
  -20.7801    0.5412  -28.1739 H   0  0  0  0  0  0  0  0  0  0  0  0
  -24.1282   -2.1412  -27.8329 H   0  0  0  0  0  0  0  0  0  0  0  0
  -24.2421   -2.3233  -30.3070 H   0  0  0  0  0  0  0  0  0  0  0  0
  -23.2073   -1.2112  -25.7951 H   0  0  0  0  0  0  0  0  0  0  0  0
  -20.6836    0.4735  -26.1432 H   0  0  0  0  0  0  0  0  0  0  0  0
  -20.8690    2.0514  -23.9771 H   0  0  0  0  0  0  0  0  0  0  0  0
  -21.4306    0.0380  -20.2032 H   0  0  0  0  0  0  0  0  0  0  0  0
  -22.0488   -2.0826  -23.9039 H   0  0  0  0  0  0  0  0  0  0  0  0
  -22.0896   -2.2874  -20.2860 H   0  0  0  0  0  0  0  0  0  0  0  0
  -20.7710    2.3565  -20.3642 H   0  0  0  0  0  0  0  0  0  0  0  0
  -24.3566   -2.1762  -32.1555 H   0  0  0  0  0  0  0  0  0  0  0  0
  -20.9073   -0.2315  -32.5176 H   0  0  0  0  0  0  0  0  0  0  0  0
 18 19  1  0
 17 19  1  0
 19  1  1  0
  1  2  2  0
  1  6  1  0
  2  3  1  0
  6  5  2  0
  3  4  2  0
  5  4  1  0
  4  7  1  0
  7  8  2  0
  8  9  1  0
  9 10  2  0
  9 14  1  0
 10 11  1  0
 14 13  2  0
 11 16  1  0
 11 12  2  0
 13 12  1  0
 13 15  1  0
  2 20  1  0
  3 21  1  0
  5 22  1  0
  6 23  1  0
  7 24  1  0
  8 25  1  0
 10 26  1  0
 12 27  1  0
 14 28  1  0
 15 29  1  0
 16 30  1  0
 17 31  1  0
 18 32  1  0
A    1
C01
A    2
C02
A    3
C03
A    4
C04
A    5
C05
A    6
C06
A    7
C07
A    8
C08
A    9
C09
A   10
C10
A   11
C11
A   12
C12
A   13
C13
A   14
C14
A   15
O01
A   16
O02
A   17
O03
A   18
O04
A   19
B01
M  END
