5U4C_XBS_A_200
     RDKit          3D

 33 34  0  0  0  0  0  0  0  0999 V2000
   21.4840   87.0250   85.1940 C   0  0  0  0  0  0  0  0  0  0  0  0
   21.6630   85.7090   85.5820 C   0  0  0  0  0  0  0  0  0  0  0  0
   21.6820   85.3780   86.9280 C   0  0  0  0  0  0  0  0  0  0  0  0
   21.5050   86.3780   87.8740 C   0  0  0  0  0  0  0  0  0  0  0  0
   21.3410   87.6930   87.4750 C   0  0  0  0  0  0  0  0  0  0  0  0
   21.3220   88.0230   86.1360 C   0  0  0  0  0  0  0  0  0  0  0  0
   21.5320   86.0990   89.3590 C   0  0  0  0  0  0  0  0  0  0  0  0
   22.3950   85.2680   89.9540 C   0  0  0  0  0  0  0  0  0  0  0  0
   22.5010   84.9890   91.4370 C   0  0  0  0  0  0  0  0  0  0  0  0
   23.6120   84.3010   91.8930 C   0  0  0  0  0  0  0  0  0  0  0  0
   23.7660   84.0410   93.2420 C   0  0  0  0  0  0  0  0  0  0  0  0
   22.8110   84.4770   94.1430 C   0  0  0  0  0  0  0  0  0  0  0  0
   21.7000   85.1750   93.6940 C   0  0  0  0  0  0  0  0  0  0  0  0
   21.5470   85.4380   92.3380 C   0  0  0  0  0  0  0  0  0  0  0  0
   21.8400   84.6570   84.5130 C   0  0  0  0  0  0  0  0  0  0  0  0
   24.2850   83.6990   96.2170 O   0  0  0  0  0  0  0  0  0  0  0  0
   21.9240   84.3090   96.6580 O   0  0  0  0  0  0  0  0  0  0  0  0
   22.1470   83.4670   84.8140 O   0  0  0  0  0  0  0  0  0  0  0  0
   21.6820   84.9830   83.3050 O   0  0  0  0  0  0  0  0  0  0  0  0
   23.0130   84.1480   95.7470 B   0  0  0  0  0  0  0  0  0  0  0  0
   21.4705   87.2796   84.1240 H   0  0  0  0  0  0  0  0  0  0  0  0
   21.8355   84.3352   87.2426 H   0  0  0  0  0  0  0  0  0  0  0  0
   21.2248   88.4820   88.2326 H   0  0  0  0  0  0  0  0  0  0  0  0
   21.1797   89.0675   85.8218 H   0  0  0  0  0  0  0  0  0  0  0  0
   20.7937   86.6129   89.9921 H   0  0  0  0  0  0  0  0  0  0  0  0
   23.0986   84.7336   89.2988 H   0  0  0  0  0  0  0  0  0  0  0  0
   24.3758   83.9596   91.1789 H   0  0  0  0  0  0  0  0  0  0  0  0
   24.6473   83.4878   93.5988 H   0  0  0  0  0  0  0  0  0  0  0  0
   20.9403   85.5203   94.4107 H   0  0  0  0  0  0  0  0  0  0  0  0
   20.6720   86.0005   91.9804 H   0  0  0  0  0  0  0  0  0  0  0  0
   24.2893   83.6975   97.2070 H   0  0  0  0  0  0  0  0  0  0  0  0
   22.2612   84.2592   97.5875 H   0  0  0  0  0  0  0  0  0  0  0  0
   22.2162   83.1989   85.7645 H   0  0  0  0  0  0  0  0  0  0  0  0
 19 15  2  0
 15 18  1  0
 15  2  1  0
  1  2  2  0
  1  6  1  0
  2  3  1  0
  6  5  2  0
  3  4  2  0
  5  4  1  0
  4  7  1  0
  7  8  2  0
  8  9  1  0
  9 10  2  0
  9 14  1  0
 10 11  1  0
 14 13  2  0
 11 12  2  0
 13 12  1  0
 12 20  1  0
 20 16  1  0
 20 17  1  0
  1 21  1  0
  3 22  1  0
  5 23  1  0
  6 24  1  0
  7 25  1  0
  8 26  1  0
 10 27  1  0
 11 28  1  0
 13 29  1  0
 14 30  1  0
 16 31  1  0
 17 32  1  0
 18 33  1  0
A    1
C01
A    2
C02
A    3
C03
A    4
C04
A    5
C05
A    6
C06
A    7
C07
A    8
C08
A    9
C09
A   10
C10
A   11
C11
A   12
C12
A   13
C13
A   14
C14
A   15
C15
A   16
O01
A   17
O02
A   18
O03
A   19
O04
A   20
B01
M  END
