5U4D_XLO_A_200
     RDKit          3D

 30 31  0  0  0  0  0  0  0  0999 V2000
  -19.7880    1.5320  -29.7140 C   0  0  0  0  0  0  0  0  0  0  0  0
  -19.2390    1.9380  -28.5080 C   0  0  0  0  0  0  0  0  0  0  0  0
  -19.7350    1.4290  -27.3210 C   0  0  0  0  0  0  0  0  0  0  0  0
  -20.7700    0.5130  -27.3390 C   0  0  0  0  0  0  0  0  0  0  0  0
  -21.3120    0.0980  -28.5440 C   0  0  0  0  0  0  0  0  0  0  0  0
  -20.8240    0.6150  -29.7320 C   0  0  0  0  0  0  0  0  0  0  0  0
  -21.4140    0.1780  -31.0570 C   0  0  0  0  0  0  0  0  0  0  0  0
  -21.2850   -0.0630  -26.0430 C   0  0  0  0  0  0  0  0  0  0  0  0
  -20.7810    0.1650  -24.8200 C   0  0  0  0  0  0  0  0  0  0  0  0
  -21.3160   -0.4840  -23.5650 C   0  0  0  0  0  0  0  0  0  0  0  0
  -21.4900   -1.8680  -23.6030 C   0  0  0  0  0  0  0  0  0  0  0  0
  -21.9730   -2.5390  -22.5010 C   0  0  0  0  0  0  0  0  0  0  0  0
  -22.2630   -1.8240  -21.3510 C   0  0  0  0  0  0  0  0  0  0  0  0
  -22.0830   -0.4480  -21.3030 C   0  0  0  0  0  0  0  0  0  0  0  0
  -21.6050    0.2380  -22.4160 C   0  0  0  0  0  0  0  0  0  0  0  0
  -22.5360   -0.3960  -31.0970 O   0  0  0  0  0  0  0  0  0  0  0  0
  -20.7750    0.3910  -32.1220 O   0  0  0  0  0  0  0  0  0  0  0  0
  -22.7620   -2.5130  -20.2300 O   0  0  0  0  0  0  0  0  0  0  0  0
  -21.3810    1.9740  -22.3250 Cl  0  0  0  0  0  0  0  0  0  0  0  0
  -19.3993    1.9396  -30.6589 H   0  0  0  0  0  0  0  0  0  0  0  0
  -18.4115    2.6626  -28.4946 H   0  0  0  0  0  0  0  0  0  0  0  0
  -19.3052    1.7536  -26.3619 H   0  0  0  0  0  0  0  0  0  0  0  0
  -22.1276   -0.6400  -28.5572 H   0  0  0  0  0  0  0  0  0  0  0  0
  -22.1553   -0.7327  -26.1064 H   0  0  0  0  0  0  0  0  0  0  0  0
  -19.9341    0.8608  -24.7266 H   0  0  0  0  0  0  0  0  0  0  0  0
  -21.2403   -2.4260  -24.5174 H   0  0  0  0  0  0  0  0  0  0  0  0
  -22.1262   -3.6278  -22.5341 H   0  0  0  0  0  0  0  0  0  0  0  0
  -22.3194    0.1029  -20.3807 H   0  0  0  0  0  0  0  0  0  0  0  0
  -23.0007   -0.6337  -30.2558 H   0  0  0  0  0  0  0  0  0  0  0  0
  -22.5369   -2.2022  -19.3174 H   0  0  0  0  0  0  0  0  0  0  0  0
 17  7  2  0
 16  7  1  0
  7  6  1  0
  6  1  2  0
  6  5  1  0
  1  2  1  0
  5  4  2  0
  2  3  2  0
  4  3  1  0
  4  8  1  0
  8  9  2  0
  9 10  1  0
 11 10  2  0
 11 12  1  0
 10 15  1  0
 12 13  2  0
 15 19  1  0
 15 14  2  0
 13 14  1  0
 13 18  1  0
  1 20  1  0
  2 21  1  0
  3 22  1  0
  5 23  1  0
  8 24  1  0
  9 25  1  0
 11 26  1  0
 12 27  1  0
 14 28  1  0
 16 29  1  0
 18 30  1  0
A    1
C01
A    2
C02
A    3
C03
A    4
C04
A    5
C05
A    6
C06
A    7
C07
A    8
C08
A    9
C09
A   10
C10
A   11
C11
A   12
C12
A   13
C13
A   14
C14
A   15
C15
A   16
O01
A   17
O02
A   18
O03
A   19
CL1
M  END
