5U4X_7VM_A_502
     RDKit          3D

 68 71  0  0  0  0  0  0  0  0999 V2000
    8.7220   29.9210   20.6130 C   0  0  0  0  0  0  0  0  0  0  0  0
    8.4100   29.2510   21.9450 C   0  0  0  0  0  0  0  0  0  0  0  0
    7.5630   28.0220   21.7090 C   0  0  0  0  0  0  0  0  0  0  0  0
   10.9190   30.6970   21.4720 N   0  0  0  0  0  0  0  0  0  0  0  0
    5.5420   26.9780   21.9520 C   0  0  0  0  0  0  0  0  0  0  0  0
    5.9750   25.8560   21.2650 C   0  0  0  0  0  0  0  0  0  0  0  0
    6.3110   28.0560   22.1860 N   0  0  0  0  0  0  0  0  0  0  0  0
    7.2700   25.8260   20.7660 C   0  0  0  0  0  0  0  0  0  0  0  0
    7.8430   24.6480   20.0070 C   0  0  0  0  0  0  0  0  0  0  0  0
    5.9930   24.1410   18.4550 C   0  0  0  0  0  0  0  0  0  0  0  0
    6.8100   22.3780   19.9180 C   0  0  0  0  0  0  0  0  0  0  0  0
    6.8520   23.6660   19.5300 N   0  0  0  0  0  0  0  0  0  0  0  0
    7.6690   21.9560   21.0630 C   0  0  0  0  0  0  0  0  0  0  0  0
    8.6450   20.9840   20.8840 C   0  0  0  0  0  0  0  0  0  0  0  0
    9.4120   20.5620   21.9530 C   0  0  0  0  0  0  0  0  0  0  0  0
    6.1520   21.5350   19.3320 O   0  0  0  0  0  0  0  0  0  0  0  0
    7.4790   22.5190   22.3250 C   0  0  0  0  0  0  0  0  0  0  0  0
    8.2650   22.1010   23.3900 C   0  0  0  0  0  0  0  0  0  0  0  0
    8.1270   22.6470   24.6790 O   0  0  0  0  0  0  0  0  0  0  0  0
    7.1480   23.6140   24.9160 C   0  0  0  0  0  0  0  0  0  0  0  0
    5.9130   23.2220   25.4080 C   0  0  0  0  0  0  0  0  0  0  0  0
    4.9360   24.1770   25.6320 C   0  0  0  0  0  0  0  0  0  0  0  0
    5.1830   25.5090   25.3530 C   0  0  0  0  0  0  0  0  0  0  0  0
    6.4120   25.8890   24.8530 C   0  0  0  0  0  0  0  0  0  0  0  0
    7.4040   24.9450   24.6350 C   0  0  0  0  0  0  0  0  0  0  0  0
    9.2310   21.1160   23.2100 C   0  0  0  0  0  0  0  0  0  0  0  0
    8.0680   26.9370   21.0000 C   0  0  0  0  0  0  0  0  0  0  0  0
    9.6880   31.0880   20.7770 C   0  0  0  0  0  0  0  0  0  0  0  0
    9.7060   28.9120   22.6780 C   0  0  0  0  0  0  0  0  0  0  0  0
   10.6230   30.1230   22.7890 C   0  0  0  0  0  0  0  0  0  0  0  0
   11.8540   29.9130   20.6540 C   0  0  0  0  0  0  0  0  0  0  0  0
   13.1270   30.6680   20.3880 C   0  0  0  0  0  0  0  0  0  0  0  0
   14.1630   29.8440   19.7100 N   0  0  0  0  0  0  0  0  0  0  0  0
   13.8820   29.4600   18.3310 C   0  0  0  0  0  0  0  0  0  0  0  0
    7.7848   30.2940   20.1743 H   0  0  0  0  0  0  0  0  0  0  0  0
    9.1965   29.1748   19.9587 H   0  0  0  0  0  0  0  0  0  0  0  0
    7.8386   29.9411   22.5831 H   0  0  0  0  0  0  0  0  0  0  0  0
    4.5084   26.9878   22.3283 H   0  0  0  0  0  0  0  0  0  0  0  0
    5.3011   24.9994   21.1167 H   0  0  0  0  0  0  0  0  0  0  0  0
    8.5473   24.1255   20.6710 H   0  0  0  0  0  0  0  0  0  0  0  0
    8.3159   25.0663   19.1063 H   0  0  0  0  0  0  0  0  0  0  0  0
    5.1064   24.6312   18.8835 H   0  0  0  0  0  0  0  0  0  0  0  0
    6.5464   24.8613   17.8346 H   0  0  0  0  0  0  0  0  0  0  0  0
    5.6771   23.2894   17.8346 H   0  0  0  0  0  0  0  0  0  0  0  0
    8.8080   20.5484   19.8871 H   0  0  0  0  0  0  0  0  0  0  0  0
   10.1719   19.7805   21.8050 H   0  0  0  0  0  0  0  0  0  0  0  0
    6.7098   23.2908   22.4756 H   0  0  0  0  0  0  0  0  0  0  0  0
    5.7109   22.1614   25.6186 H   0  0  0  0  0  0  0  0  0  0  0  0
    3.9578   23.8747   26.0341 H   0  0  0  0  0  0  0  0  0  0  0  0
    4.4021   26.2634   25.5291 H   0  0  0  0  0  0  0  0  0  0  0  0
    6.6059   26.9477   24.6259 H   0  0  0  0  0  0  0  0  0  0  0  0
    8.3850   25.2509   24.2425 H   0  0  0  0  0  0  0  0  0  0  0  0
    9.8456   20.7800   24.0582 H   0  0  0  0  0  0  0  0  0  0  0  0
    9.1016   26.9597   20.6242 H   0  0  0  0  0  0  0  0  0  0  0  0
    9.9510   31.4724   19.7805 H   0  0  0  0  0  0  0  0  0  0  0  0
    9.1878   31.8566   21.3844 H   0  0  0  0  0  0  0  0  0  0  0  0
    9.4610   28.5563   23.6897 H   0  0  0  0  0  0  0  0  0  0  0  0
   10.2318   28.1349   22.1039 H   0  0  0  0  0  0  0  0  0  0  0  0
   11.5658   29.8148   23.2644 H   0  0  0  0  0  0  0  0  0  0  0  0
   10.1118   30.8883   23.3915 H   0  0  0  0  0  0  0  0  0  0  0  0
   11.3738   29.6741   19.6936 H   0  0  0  0  0  0  0  0  0  0  0  0
   12.1077   28.9962   21.2063 H   0  0  0  0  0  0  0  0  0  0  0  0
   13.5325   31.0198   21.3481 H   0  0  0  0  0  0  0  0  0  0  0  0
   12.8792   31.5022   19.7152 H   0  0  0  0  0  0  0  0  0  0  0  0
   14.2852   28.9803   20.2577 H   0  0  0  0  0  0  0  0  0  0  0  0
   13.2324   28.5723   18.3227 H   0  0  0  0  0  0  0  0  0  0  0  0
   13.3760   30.2895   17.8152 H   0  0  0  0  0  0  0  0  0  0  0  0
   14.8257   29.2287   17.8152 H   0  0  0  0  0  0  0  0  0  0  0  0
 34 33  1  0
 10 12  1  0
 16 11  2  0
 12 11  1  0
 12  9  1  0
 33 32  1  0
 11 13  1  0
  9  8  1  0
 32 31  1  0
  1 28  1  0
  1  2  1  0
 31  4  1  0
  8 27  2  0
  8  6  1  0
 28  4  1  0
 14 13  2  0
 14 15  1  0
 27  3  1  0
 13 17  1  0
  6  5  2  0
  4 30  1  0
  3  2  1  0
  3  7  2  0
  2 29  1  0
  5  7  1  0
 15 26  2  0
 17 18  2  0
 29 30  1  0
 26 18  1  0
 18 19  1  0
 25 24  2  0
 25 20  1  0
 19 20  1  0
 24 23  1  0
 20 21  2  0
 23 22  2  0
 21 22  1  0
  1 35  1  0
  1 36  1  0
  2 37  1  0
  5 38  1  0
  6 39  1  0
  9 40  1  0
  9 41  1  0
 10 42  1  0
 10 43  1  0
 10 44  1  0
 14 45  1  0
 15 46  1  0
 17 47  1  0
 21 48  1  0
 22 49  1  0
 23 50  1  0
 24 51  1  0
 25 52  1  0
 26 53  1  0
 27 54  1  0
 28 55  1  0
 28 56  1  0
 29 57  1  0
 29 58  1  0
 30 59  1  0
 30 60  1  0
 31 61  1  0
 31 62  1  0
 32 63  1  0
 32 64  1  0
 33 65  1  0
 34 66  1  0
 34 67  1  0
 34 68  1  0
A    1
C4
A    2
C5
A    3
C6
A    4
N1
A    5
C7
A    6
C8
A    7
N2
A    8
C9
A    9
C10
A   10
C11
A   11
C12
A   12
N3
A   13
C13
A   14
C14
A   15
C15
A   16
O1
A   17
C24
A   18
C17
A   19
O
A   20
C18
A   21
C23
A   22
C22
A   23
C21
A   24
C20
A   25
C19
A   26
C16
A   27
C25
A   28
C3
A   29
C26
A   30
C27
A   31
C2
A   32
C1
A   33
N
A   34
C
M  END
