5U5H_7VV_A_501
     RDKit          3D

 47 49  0  0  0  0  0  0  0  0999 V2000
   -5.0760    4.9770   21.4120 C   0  0  0  0  0  0  0  0  0  0  0  0
   -4.0030    4.6080   22.2390 C   0  0  0  0  0  0  0  0  0  0  0  0
   -2.8750    5.4490   22.2960 C   0  0  0  0  0  0  0  0  0  0  0  0
   -1.5300    8.1830   24.0100 C   0  0  0  0  0  0  0  0  0  0  0  0
   -1.2870    9.4180   24.9340 C   0  0  0  0  0  0  0  0  0  0  0  0
   -1.9420   10.6700   24.3970 C   0  0  0  0  0  0  0  0  0  0  0  0
   -2.1360   11.8310   25.0610 C   0  0  0  0  0  0  0  0  0  0  0  0
   -3.0740   11.9030   23.0650 C   0  0  0  0  0  0  0  0  0  0  0  0
   -1.6900   12.3130   26.4210 C   0  0  0  0  0  0  0  0  0  0  0  0
   -0.8210   13.5800   26.1960 C   0  0  0  0  0  0  0  0  0  0  0  0
   -2.9370   12.6280   27.2970 C   0  0  0  0  0  0  0  0  0  0  0  0
   -3.0150    3.0150   23.8820 C   0  0  0  0  0  0  0  0  0  0  0  0
   -2.7860    6.6010   21.5030 C   0  0  0  0  0  0  0  0  0  0  0  0
   -3.8460    6.9180   20.6450 C   0  0  0  0  0  0  0  0  0  0  0  0
   -4.9970    6.1240   20.6170 C   0  0  0  0  0  0  0  0  0  0  0  0
   -3.7810    8.0000   19.8740 F   0  0  0  0  0  0  0  0  0  0  0  0
   -1.4730    7.4190   21.5090 C   0  0  0  0  0  0  0  0  0  0  0  0
   -2.5790    9.6440   22.2370 C   0  0  0  0  0  0  0  0  0  0  0  0
   -1.4550    8.6170   22.5230 C   0  0  0  0  0  0  0  0  0  0  0  0
   -2.5230   10.7410   23.2100 N   0  0  0  0  0  0  0  0  0  0  0  0
   -2.8690   12.5950   24.0920 N   0  0  0  0  0  0  0  0  0  0  0  0
   -3.7130   12.3160   22.0150 N   0  0  0  0  0  0  0  0  0  0  0  0
   -4.1050    3.4810   23.0730 O   0  0  0  0  0  0  0  0  0  0  0  0
   -5.9856    4.3588   21.3896 H   0  0  0  0  0  0  0  0  0  0  0  0
   -2.0479    5.1969   22.9760 H   0  0  0  0  0  0  0  0  0  0  0  0
   -2.5246    7.7615   24.2177 H   0  0  0  0  0  0  0  0  0  0  0  0
   -0.7578    7.4247   24.2065 H   0  0  0  0  0  0  0  0  0  0  0  0
   -1.6997    9.2017   25.9304 H   0  0  0  0  0  0  0  0  0  0  0  0
   -0.2027    9.5972   24.9803 H   0  0  0  0  0  0  0  0  0  0  0  0
   -1.1023   11.5477   26.9491 H   0  0  0  0  0  0  0  0  0  0  0  0
   -0.5308   14.0031   27.1690 H   0  0  0  0  0  0  0  0  0  0  0  0
    0.0824   13.3092   25.6298 H   0  0  0  0  0  0  0  0  0  0  0  0
   -1.3990   14.3252   25.6298 H   0  0  0  0  0  0  0  0  0  0  0  0
   -2.6648   12.5592   28.3606 H   0  0  0  0  0  0  0  0  0  0  0  0
   -3.2939   13.6445   27.0748 H   0  0  0  0  0  0  0  0  0  0  0  0
   -3.7338   11.9029   27.0748 H   0  0  0  0  0  0  0  0  0  0  0  0
   -3.2741    3.1258   24.9453 H   0  0  0  0  0  0  0  0  0  0  0  0
   -2.8208    1.9552   23.6604 H   0  0  0  0  0  0  0  0  0  0  0  0
   -2.1147    3.6069   23.6604 H   0  0  0  0  0  0  0  0  0  0  0  0
   -5.8409    6.4024   19.9687 H   0  0  0  0  0  0  0  0  0  0  0  0
   -0.6466    6.7398   21.7655 H   0  0  0  0  0  0  0  0  0  0  0  0
   -1.3743    7.8582   20.5053 H   0  0  0  0  0  0  0  0  0  0  0  0
   -2.4501   10.0507   21.2231 H   0  0  0  0  0  0  0  0  0  0  0  0
   -3.5539    9.1411   22.3189 H   0  0  0  0  0  0  0  0  0  0  0  0
   -0.4754    9.0912   22.3631 H   0  0  0  0  0  0  0  0  0  0  0  0
   -4.5734   12.8721   22.1214 H   0  0  0  0  0  0  0  0  0  0  0  0
   -3.3602   12.0879   21.0746 H   0  0  0  0  0  0  0  0  0  0  0  0
 16 14  1  0
 15 14  1  0
 15  1  2  0
 14 13  2  0
  1  2  1  0
 13 17  1  0
 13  3  1  0
 17 19  1  0
 22  8  1  0
 18 19  1  0
 18 20  1  0
  2  3  2  0
  2 23  1  0
 19  4  1  0
  8 20  1  0
  8 21  2  0
 23 12  1  0
 20  6  1  0
  4  5  1  0
 21  7  1  0
  6  5  1  0
  6  7  2  0
  7  9  1  0
 10  9  1  0
  9 11  1  0
  1 24  1  0
  3 25  1  0
  4 26  1  0
  4 27  1  0
  5 28  1  0
  5 29  1  0
  9 30  1  0
 10 31  1  0
 10 32  1  0
 10 33  1  0
 11 34  1  0
 11 35  1  0
 11 36  1  0
 12 37  1  0
 12 38  1  0
 12 39  1  0
 15 40  1  0
 17 41  1  0
 17 42  1  0
 18 43  1  0
 18 44  1  0
 19 45  1  0
 22 46  1  0
 22 47  1  0
A    1
C1
A    2
C2
A    3
C3
A    4
C11
A    5
C12
A    6
C13
A    7
C15
A    8
C17
A    9
C18
A   10
C19
A   11
C20
A   12
C23
A   13
C4
A   14
C5
A   15
C6
A   16
F7
A   17
C8
A   18
C9
A   19
C10
A   20
N14
A   21
N16
A   22
N21
A   23
O22
M  END
