5U5K_7VY_A_502
     RDKit          3D

 34 35  0  0  0  0  0  0  0  0999 V2000
   22.1740   -4.9290   10.5780 C   0  0  0  0  0  0  0  0  0  0  0  0
   22.1070   -3.7860   11.3900 C   0  0  0  0  0  0  0  0  0  0  0  0
   20.9300   -3.0220   11.4030 C   0  0  0  0  0  0  0  0  0  0  0  0
   19.3390    0.9410    7.6420 C   0  0  0  0  0  0  0  0  0  0  0  0
   19.2250    0.0250   10.0030 C   0  0  0  0  0  0  0  0  0  0  0  0
   20.0100   -6.9980    8.2150 C   0  0  0  0  0  0  0  0  0  0  0  0
   19.8190   -3.3940   10.6090 C   0  0  0  0  0  0  0  0  0  0  0  0
   19.9230   -4.5200    9.7750 C   0  0  0  0  0  0  0  0  0  0  0  0
   21.0810   -5.3120    9.7580 C   0  0  0  0  0  0  0  0  0  0  0  0
   18.5860   -2.4770   10.4910 C   0  0  0  0  0  0  0  0  0  0  0  0
   19.0310   -1.4120    9.4350 C   0  0  0  0  0  0  0  0  0  0  0  0
   18.1800   -1.3150    8.1400 C   0  0  0  0  0  0  0  0  0  0  0  0
   18.9200   -0.4490    7.0710 C   0  0  0  0  0  0  0  0  0  0  0  0
   19.9540    0.8670    9.0070 N   0  0  0  0  0  0  0  0  0  0  0  0
   21.1420   -6.4450    8.9060 O   0  0  0  0  0  0  0  0  0  0  0  0
   23.0897   -5.5385   10.5773 H   0  0  0  0  0  0  0  0  0  0  0  0
   22.9675   -3.4924   12.0092 H   0  0  0  0  0  0  0  0  0  0  0  0
   20.8702   -2.1249   12.0367 H   0  0  0  0  0  0  0  0  0  0  0  0
   20.0695    1.3935    6.9552 H   0  0  0  0  0  0  0  0  0  0  0  0
   18.4226    1.5427    7.7327 H   0  0  0  0  0  0  0  0  0  0  0  0
   19.8076   -0.0258   10.9347 H   0  0  0  0  0  0  0  0  0  0  0  0
   18.2406    0.4719   10.2062 H   0  0  0  0  0  0  0  0  0  0  0  0
   19.2730   -7.3580    8.9480 H   0  0  0  0  0  0  0  0  0  0  0  0
   19.5510   -6.2227    7.5840 H   0  0  0  0  0  0  0  0  0  0  0  0
   20.3394   -7.8367    7.5840 H   0  0  0  0  0  0  0  0  0  0  0  0
   19.0789   -4.7861    9.1218 H   0  0  0  0  0  0  0  0  0  0  0  0
   18.3538   -2.0025   11.4558 H   0  0  0  0  0  0  0  0  0  0  0  0
   17.6733   -3.0174   10.1998 H   0  0  0  0  0  0  0  0  0  0  0  0
   20.0074   -1.8319    9.1514 H   0  0  0  0  0  0  0  0  0  0  0  0
   17.2110   -0.8509    8.3760 H   0  0  0  0  0  0  0  0  0  0  0  0
   18.0240   -2.3265    7.7367 H   0  0  0  0  0  0  0  0  0  0  0  0
   18.2503   -0.2942    6.2122 H   0  0  0  0  0  0  0  0  0  0  0  0
   19.8323   -0.9841    6.7688 H   0  0  0  0  0  0  0  0  0  0  0  0
   20.9048    0.4843    8.9051 H   0  0  0  0  0  0  0  0  0  0  0  0
 13  4  1  0
 13 12  1  0
  4 14  1  0
 12 11  1  0
  6 15  1  0
 15  9  1  0
 14  5  1  0
 11  5  1  0
 11 10  1  0
  9  8  1  0
  9  1  2  0
  8  7  2  0
 10  7  1  0
  1  2  1  0
  7  3  1  0
  2  3  2  0
  1 16  1  0
  2 17  1  0
  3 18  1  0
  4 19  1  0
  4 20  1  0
  5 21  1  0
  5 22  1  0
  6 23  1  0
  6 24  1  0
  6 25  1  0
  8 26  1  0
 10 27  1  0
 10 28  1  0
 11 29  1  0
 12 30  1  0
 12 31  1  0
 13 32  1  0
 13 33  1  0
 14 34  1  0
A    1
C1
A    2
C2
A    3
C3
A    4
C11
A    5
C13
A    6
C15
A    7
C4
A    8
C5
A    9
C6
A   10
C7
A   11
C8
A   12
C9
A   13
C10
A   14
N12
A   15
O14
M  END
