5U5L_7VA_A_501
     RDKit          3D

 47 50  0  0  0  0  0  0  0  0999 V2000
   -6.1350   28.6310  130.2270 C   0  0  0  0  0  0  0  0  0  0  0  0
   -8.8200   29.2460  129.9320 C   0  0  0  0  0  0  0  0  0  0  0  0
   -7.8500   30.6090  125.8520 C   0  0  0  0  0  0  0  0  0  0  0  0
   -8.6040   32.5890  125.3470 C   0  0  0  0  0  0  0  0  0  0  0  0
   -6.8250   33.4910  123.9790 C   0  0  0  0  0  0  0  0  0  0  0  0
   -8.7890   34.8340  124.4160 C   0  0  0  0  0  0  0  0  0  0  0  0
   -5.6700   30.6020  124.6850 C   0  0  0  0  0  0  0  0  0  0  0  0
   -6.9490   36.9490  123.7070 C   0  0  0  0  0  0  0  0  0  0  0  0
   -5.3340   31.8750  134.6980 N   0  0  0  0  0  0  0  0  0  0  0  0
   -6.0280   30.6510  134.5870 C   0  0  0  0  0  0  0  0  0  0  0  0
   -5.7690   30.0520  133.2790 C   0  0  0  0  0  0  0  0  0  0  0  0
   -4.7350   31.1080  132.4830 S   0  0  0  0  0  0  0  0  0  0  0  0
   -4.6120   32.2350  133.6520 C   0  0  0  0  0  0  0  0  0  0  0  0
   -3.9710   33.2270  133.5770 O   0  0  0  0  0  0  0  0  0  0  0  0
   -6.7170   30.1840  135.4290 O   0  0  0  0  0  0  0  0  0  0  0  0
   -6.3190   28.7230  132.7550 C   0  0  0  0  0  0  0  0  0  0  0  0
   -6.9220   28.8430  131.3510 C   0  0  0  0  0  0  0  0  0  0  0  0
   -6.6900   28.7320  128.9570 C   0  0  0  0  0  0  0  0  0  0  0  0
   -8.0360   29.0410  128.8080 C   0  0  0  0  0  0  0  0  0  0  0  0
   -8.2660   29.1450  131.1990 C   0  0  0  0  0  0  0  0  0  0  0  0
   -8.6250   29.1460  127.5360 O   0  0  0  0  0  0  0  0  0  0  0  0
   -7.7450   29.2040  126.4470 C   0  0  0  0  0  0  0  0  0  0  0  0
   -6.9330   31.1910  125.0930 N   0  0  0  0  0  0  0  0  0  0  0  0
   -7.3750   32.4370  124.7580 C   0  0  0  0  0  0  0  0  0  0  0  0
   -8.8730   31.4340  126.0210 N   0  0  0  0  0  0  0  0  0  0  0  0
   -7.5350   34.6780  123.8150 C   0  0  0  0  0  0  0  0  0  0  0  0
   -9.3290   33.8020  125.1800 C   0  0  0  0  0  0  0  0  0  0  0  0
   -6.9890   35.7150  123.0460 O   0  0  0  0  0  0  0  0  0  0  0  0
   -5.0696   28.3825  130.3420 H   0  0  0  0  0  0  0  0  0  0  0  0
   -9.8866   29.4899  129.8186 H   0  0  0  0  0  0  0  0  0  0  0  0
   -5.8394   33.3693  123.5060 H   0  0  0  0  0  0  0  0  0  0  0  0
   -9.3486   35.7720  124.2851 H   0  0  0  0  0  0  0  0  0  0  0  0
   -5.0870   30.3301  125.5773 H   0  0  0  0  0  0  0  0  0  0  0  0
   -5.8627   29.7009  124.0843 H   0  0  0  0  0  0  0  0  0  0  0  0
   -5.1035   31.3288  124.0843 H   0  0  0  0  0  0  0  0  0  0  0  0
   -6.9544   36.7828  124.7944 H   0  0  0  0  0  0  0  0  0  0  0  0
   -6.0329   37.4876  123.4229 H   0  0  0  0  0  0  0  0  0  0  0  0
   -7.8283   37.5458  123.4229 H   0  0  0  0  0  0  0  0  0  0  0  0
   -5.3875   32.4552  135.5473 H   0  0  0  0  0  0  0  0  0  0  0  0
   -6.6354   30.5787  132.8524 H   0  0  0  0  0  0  0  0  0  0  0  0
   -7.1001   28.3696  133.4441 H   0  0  0  0  0  0  0  0  0  0  0  0
   -5.4780   28.0165  132.6954 H   0  0  0  0  0  0  0  0  0  0  0  0
   -6.0626   28.5670  128.0686 H   0  0  0  0  0  0  0  0  0  0  0  0
   -8.8955   29.3052  132.0867 H   0  0  0  0  0  0  0  0  0  0  0  0
   -8.0282   28.4541  125.6938 H   0  0  0  0  0  0  0  0  0  0  0  0
   -6.7142   28.9928  126.7675 H   0  0  0  0  0  0  0  0  0  0  0  0
  -10.3143   33.9245  125.6535 H   0  0  0  0  0  0  0  0  0  0  0  0
 28  8  1  0
 28 26  1  0
 26  5  2  0
 26  6  1  0
  5 24  1  0
  6 27  2  0
  7 23  1  0
 24 23  1  0
 24  4  2  0
 23  3  1  0
 27  4  1  0
  4 25  1  0
  3 25  2  0
  3 22  1  0
 22 21  1  0
 21 19  1  0
 19 18  1  0
 19  2  2  0
 18  1  2  0
  2 20  1  0
  1 17  1  0
 20 17  2  0
 17 16  1  0
 12 11  1  0
 12 13  1  0
 16 11  1  0
 11 10  1  0
 14 13  2  0
 13  9  1  0
 10  9  1  0
 10 15  2  0
  1 29  1  0
  2 30  1  0
  5 31  1  0
  6 32  1  0
  7 33  1  0
  7 34  1  0
  7 35  1  0
  8 36  1  0
  8 37  1  0
  8 38  1  0
  9 39  1  0
 11 40  1  0
 16 41  1  0
 16 42  1  0
 18 43  1  0
 20 44  1  0
 22 45  1  0
 22 46  1  0
 27 47  1  0
A    1
C10
A    2
C13
A    3
C17
A    4
C20
A    5
C22
A    6
C24
A    7
C26
A    8
C28
A    9
N01
A   10
C02
A   11
C03
A   12
S04
A   13
C05
A   14
O06
A   15
O07
A   16
C08
A   17
C09
A   18
C11
A   19
C12
A   20
C14
A   21
O15
A   22
C16
A   23
N18
A   24
C19
A   25
N21
A   26
C23
A   27
C25
A   28
O27
M  END
