5U5T_7W7_A_501
     RDKit          3D

 38 40  0  0  0  0  0  0  0  0999 V2000
   28.1280   71.6780   95.2540 C   0  0  0  0  0  0  0  0  0  0  0  0
   27.3490   70.9540   94.3240 C   0  0  0  0  0  0  0  0  0  0  0  0
   25.9390   70.9600   94.4050 C   0  0  0  0  0  0  0  0  0  0  0  0
   30.0300   72.7270   94.1550 C   0  0  0  0  0  0  0  0  0  0  0  0
   31.2650   72.3080   93.3890 C   0  0  0  0  0  0  0  0  0  0  0  0
   31.5820   74.6340   92.5910 C   0  0  0  0  0  0  0  0  0  0  0  0
   30.4650   75.1060   93.5310 C   0  0  0  0  0  0  0  0  0  0  0  0
   30.2690   74.1330   94.7040 C   0  0  0  0  0  0  0  0  0  0  0  0
   31.1540   72.7470   90.9890 C   0  0  0  0  0  0  0  0  0  0  0  0
   25.2670   71.7110   95.3860 C   0  0  0  0  0  0  0  0  0  0  0  0
   26.0730   72.4430   96.2530 C   0  0  0  0  0  0  0  0  0  0  0  0
   27.4470   72.4350   96.1850 C   0  0  0  0  0  0  0  0  0  0  0  0
   25.6830   73.2210   97.3000 O   0  0  0  0  0  0  0  0  0  0  0  0
   26.8620   73.8130   97.8910 C   0  0  0  0  0  0  0  0  0  0  0  0
   27.9670   73.2370   97.1690 O   0  0  0  0  0  0  0  0  0  0  0  0
   29.6370   71.7150   95.2220 C   0  0  0  0  0  0  0  0  0  0  0  0
   31.3150   73.2190   92.2460 N   0  0  0  0  0  0  0  0  0  0  0  0
   31.5390   73.4410   89.9190 N   0  0  0  0  0  0  0  0  0  0  0  0
   30.5740   71.4590   90.7570 N   0  0  0  0  0  0  0  0  0  0  0  0
   27.8459   70.3795   93.5284 H   0  0  0  0  0  0  0  0  0  0  0  0
   25.3550   70.3657   93.6868 H   0  0  0  0  0  0  0  0  0  0  0  0
   29.1607   72.7535   93.4815 H   0  0  0  0  0  0  0  0  0  0  0  0
   32.1646   72.4171   94.0125 H   0  0  0  0  0  0  0  0  0  0  0  0
   31.2275   71.2527   93.0809 H   0  0  0  0  0  0  0  0  0  0  0  0
   31.5868   75.2474   91.6779 H   0  0  0  0  0  0  0  0  0  0  0  0
   32.5626   74.7321   93.0796 H   0  0  0  0  0  0  0  0  0  0  0  0
   29.5254   75.1756   92.9633 H   0  0  0  0  0  0  0  0  0  0  0  0
   30.7487   76.0871   93.9395 H   0  0  0  0  0  0  0  0  0  0  0  0
   29.4007   74.4473   95.3017 H   0  0  0  0  0  0  0  0  0  0  0  0
   31.1668   74.1342   95.3396 H   0  0  0  0  0  0  0  0  0  0  0  0
   24.1698   71.7194   95.4634 H   0  0  0  0  0  0  0  0  0  0  0  0
   26.8483   74.9062   97.7700 H   0  0  0  0  0  0  0  0  0  0  0  0
   26.9263   73.6177   98.9716 H   0  0  0  0  0  0  0  0  0  0  0  0
   30.0290   72.0261   96.2016 H   0  0  0  0  0  0  0  0  0  0  0  0
   30.0513   70.7216   94.9952 H   0  0  0  0  0  0  0  0  0  0  0  0
   31.4013   73.0514   88.9755 H   0  0  0  0  0  0  0  0  0  0  0  0
   30.3060   70.8638   91.5537 H   0  0  0  0  0  0  0  0  0  0  0  0
   30.4247   71.1274   89.7933 H   0  0  0  0  0  0  0  0  0  0  0  0
 14 13  1  0
 14 15  1  0
 13 11  1  0
 15 12  1  0
 11 12  2  0
 11 10  1  0
 12  1  1  0
 10  3  2  0
  1 16  1  0
  1  2  2  0
 16  4  1  0
  8  4  1  0
  8  7  1  0
  3  2  1  0
  4  5  1  0
  7  6  1  0
  5 17  1  0
  6 17  1  0
 17  9  1  0
  9 18  2  3
  9 19  1  0
  2 20  1  0
  3 21  1  0
  4 22  1  0
  5 23  1  0
  5 24  1  0
  6 25  1  0
  6 26  1  0
  7 27  1  0
  7 28  1  0
  8 29  1  0
  8 30  1  0
 10 31  1  0
 14 32  1  0
 14 33  1  0
 16 34  1  0
 16 35  1  0
 18 36  1  0
 19 37  1  0
 19 38  1  0
A    1
C1
A    2
C2
A    3
C3
A    4
C11
A    5
C12
A    6
C14
A    7
C15
A    8
C16
A    9
C17
A   10
C4
A   11
C5
A   12
C6
A   13
O7
A   14
C8
A   15
O9
A   16
C10
A   17
N13
A   18
N18
A   19
N19
M  END
