5U60_7VS_A_302
     RDKit          3D

 21 22  0  0  0  0  0  0  0  0999 V2000
   21.0600  -70.1130   98.8080 N   0  0  0  0  0  0  0  0  0  0  0  0
   19.8770  -70.7220   99.3490 N   0  0  0  0  0  0  0  0  0  0  0  0
   19.6400  -70.6810  100.6900 C   0  0  0  0  0  0  0  0  0  0  0  0
   20.6340  -70.3380  101.5820 C   0  0  0  0  0  0  0  0  0  0  0  0
   20.3660  -70.3570  102.9440 C   0  0  0  0  0  0  0  0  0  0  0  0
   19.2050  -70.6950  103.4850 N   0  0  0  0  0  0  0  0  0  0  0  0
   18.1930  -71.0540  102.6300 C   0  0  0  0  0  0  0  0  0  0  0  0
   16.9520  -71.4490  103.1840 C   0  0  0  0  0  0  0  0  0  0  0  0
   15.8990  -71.7640  102.3670 C   0  0  0  0  0  0  0  0  0  0  0  0
   16.0500  -71.7770  100.9860 C   0  0  0  0  0  0  0  0  0  0  0  0
   17.2420  -71.4300  100.4150 C   0  0  0  0  0  0  0  0  0  0  0  0
   18.3590  -71.0740  101.2230 C   0  0  0  0  0  0  0  0  0  0  0  0
   21.7829  -69.7409   99.4403 H   0  0  0  0  0  0  0  0  0  0  0  0
   21.1854  -70.0484   97.7877 H   0  0  0  0  0  0  0  0  0  0  0  0
   21.6315  -70.0516  101.2173 H   0  0  0  0  0  0  0  0  0  0  0  0
   21.1798  -70.0695  103.6260 H   0  0  0  0  0  0  0  0  0  0  0  0
   19.0673  -70.6887  104.5057 H   0  0  0  0  0  0  0  0  0  0  0  0
   16.8327  -71.5033  104.2762 H   0  0  0  0  0  0  0  0  0  0  0  0
   14.9223  -72.0096  102.8094 H   0  0  0  0  0  0  0  0  0  0  0  0
   15.2034  -72.0689  100.3472 H   0  0  0  0  0  0  0  0  0  0  0  0
   17.3396  -71.4257   99.3193 H   0  0  0  0  0  0  0  0  0  0  0  0
  1  2  1  0
  2  3  2  0
 11 10  1  0
 11 12  2  0
  3 12  1  0
  3  4  1  0
 10  9  2  0
 12  7  1  0
  4  5  2  0
  9  8  1  0
  7  8  2  0
  7  6  1  0
  5  6  1  0
  1 13  1  0
  1 14  1  0
  4 15  1  0
  5 16  1  0
  6 17  1  0
  8 18  1  0
  9 19  1  0
 10 20  1  0
 11 21  1  0
A    1
N01
A    2
N02
A    3
C03
A    4
C04
A    5
C05
A    6
N06
A    7
C07
A    8
C08
A    9
C09
A   10
C10
A   11
C11
A   12
C12
M  END
