5H15_LQD_A_501
     RDKit          3D

 56 59  0  0  0  0  0  0  0  0999 V2000
   32.6530   14.2350   33.9370 C   0  0  0  0  0  0  0  0  0  0  0  0
   32.3160   15.7190   34.0810 C   0  0  0  0  0  0  0  0  0  0  0  0
   33.8530   13.6470   34.1140 C   0  0  0  0  0  0  0  0  0  0  0  0
   30.2980   17.1210   34.2260 C   0  0  0  0  0  0  0  0  0  0  0  0
   30.0330   17.6780   31.7350 C   0  0  0  0  0  0  0  0  0  0  0  0
   27.9550   16.5530   30.6790 C   0  0  0  0  0  0  0  0  0  0  0  0
   34.9040   11.4190   33.9930 C   0  0  0  0  0  0  0  0  0  0  0  0
   30.3560   13.0630   33.1370 C   0  0  0  0  0  0  0  0  0  0  0  0
   32.0170   10.7230   33.1730 C   0  0  0  0  0  0  0  0  0  0  0  0
   27.6670   18.4150   32.2440 C   0  0  0  0  0  0  0  0  0  0  0  0
   30.5750   17.2510   37.1520 C   0  0  0  0  0  0  0  0  0  0  0  0
   31.8050   15.1710   37.2850 C   0  0  0  0  0  0  0  0  0  0  0  0
   26.5430   16.4970   30.5440 C   0  0  0  0  0  0  0  0  0  0  0  0
   28.3920   14.5130   29.2390 C   0  0  0  0  0  0  0  0  0  0  0  0
   29.8420   11.7890   32.7990 C   0  0  0  0  0  0  0  0  0  0  0  0
   30.6590   10.6350   32.8090 C   0  0  0  0  0  0  0  0  0  0  0  0
   26.2700   18.3330   32.1230 C   0  0  0  0  0  0  0  0  0  0  0  0
   25.7030   17.3770   31.2560 C   0  0  0  0  0  0  0  0  0  0  0  0
   33.7740   12.3550   33.8880 N   0  0  0  0  0  0  0  0  0  0  0  0
   31.7080   13.1290   33.5120 C   0  0  0  0  0  0  0  0  0  0  0  0
   30.5040   16.7650   32.8110 N   0  0  0  0  0  0  0  0  0  0  0  0
   31.0940   16.0220   34.9970 C   0  0  0  0  0  0  0  0  0  0  0  0
   32.5210   11.9950   33.5290 C   0  0  0  0  0  0  0  0  0  0  0  0
   31.9230   16.3690   32.7260 C   0  0  0  0  0  0  0  0  0  0  0  0
   28.5120   17.5360   31.5340 C   0  0  0  0  0  0  0  0  0  0  0  0
   31.4780   16.3330   36.4170 N   0  0  0  0  0  0  0  0  0  0  0  0
   28.8170   15.7040   29.9500 O   0  0  0  0  0  0  0  0  0  0  0  0
   33.2438   16.1251   34.5103 H   0  0  0  0  0  0  0  0  0  0  0  0
   34.7718   14.1759   34.4072 H   0  0  0  0  0  0  0  0  0  0  0  0
   30.6995   18.1220   34.4422 H   0  0  0  0  0  0  0  0  0  0  0  0
   29.2355   17.1584   34.5084 H   0  0  0  0  0  0  0  0  0  0  0  0
   30.5473   17.4262   30.7958 H   0  0  0  0  0  0  0  0  0  0  0  0
   30.2582   18.7150   32.0246 H   0  0  0  0  0  0  0  0  0  0  0  0
   35.1286   11.2329   35.0536 H   0  0  0  0  0  0  0  0  0  0  0  0
   34.6412   10.4704   33.5019 H   0  0  0  0  0  0  0  0  0  0  0  0
   35.7871   11.8538   33.5019 H   0  0  0  0  0  0  0  0  0  0  0  0
   29.7242   13.9629   33.1074 H   0  0  0  0  0  0  0  0  0  0  0  0
   32.6630    9.8327   33.1800 H   0  0  0  0  0  0  0  0  0  0  0  0
   28.1093   19.1767   32.9029 H   0  0  0  0  0  0  0  0  0  0  0  0
   30.7122   17.1115   38.2345 H   0  0  0  0  0  0  0  0  0  0  0  0
   30.8117   18.2911   36.8834 H   0  0  0  0  0  0  0  0  0  0  0  0
   29.5311   17.0314   36.8834 H   0  0  0  0  0  0  0  0  0  0  0  0
   31.7216   15.4673   38.3411 H   0  0  0  0  0  0  0  0  0  0  0  0
   31.1031   14.3497   37.0781 H   0  0  0  0  0  0  0  0  0  0  0  0
   32.8322   14.8363   37.0781 H   0  0  0  0  0  0  0  0  0  0  0  0
   26.0953   15.7518   29.8701 H   0  0  0  0  0  0  0  0  0  0  0  0
   28.1138   13.7333   29.9633 H   0  0  0  0  0  0  0  0  0  0  0  0
   27.5241   14.7532   28.6073 H   0  0  0  0  0  0  0  0  0  0  0  0
   29.2159   14.1495   28.6073 H   0  0  0  0  0  0  0  0  0  0  0  0
   28.7817   11.6939   32.5219 H   0  0  0  0  0  0  0  0  0  0  0  0
   30.2308    9.6608   32.5303 H   0  0  0  0  0  0  0  0  0  0  0  0
   25.6232   19.0098   32.7005 H   0  0  0  0  0  0  0  0  0  0  0  0
   24.6112   17.3181   31.1357 H   0  0  0  0  0  0  0  0  0  0  0  0
   30.4473   15.1482   35.1652 H   0  0  0  0  0  0  0  0  0  0  0  0
   32.0613   15.6450   31.9095 H   0  0  0  0  0  0  0  0  0  0  0  0
   32.5553   17.2458   32.5225 H   0  0  0  0  0  0  0  0  0  0  0  0
 14 27  1  0
 27  6  1  0
 13  6  2  0
 13 18  1  0
  6 25  1  0
 18 17  2  0
 25  5  1  0
 25 10  2  0
  5 21  1  0
 17 10  1  0
 24 21  1  0
 24  2  1  0
 15 16  2  0
 15  8  1  0
 16  9  1  0
 21  4  1  0
  8 20  2  0
  9 23  2  0
 20 23  1  0
 20  1  1  0
 23 19  1  0
 19  7  1  0
 19  3  1  0
  1  2  1  0
  1  3  2  0
  2 22  1  0
  4 22  1  0
 22 26  1  0
 26 11  1  0
 26 12  1  0
  2 28  1  0
  3 29  1  0
  4 30  1  0
  4 31  1  0
  5 32  1  0
  5 33  1  0
  7 34  1  0
  7 35  1  0
  7 36  1  0
  8 37  1  0
  9 38  1  0
 10 39  1  0
 11 40  1  0
 11 41  1  0
 11 42  1  0
 12 43  1  0
 12 44  1  0
 12 45  1  0
 13 46  1  0
 14 47  1  0
 14 48  1  0
 14 49  1  0
 15 50  1  0
 16 51  1  0
 17 52  1  0
 18 53  1  0
 22 54  1  0
 24 55  1  0
 24 56  1  0
A    1
C1
A    2
C2
A    3
C3
A    4
C11
A    5
C12
A    6
C14
A    7
C15
A    8
C16
A    9
C18
A   10
C19
A   11
C20
A   12
C21
A   13
C22
A   14
C23
A   15
C24
A   16
C25
A   17
C26
A   18
C27
A   19
N4
A   20
C5
A   21
N6
A   22
C7
A   23
C8
A   24
C9
A   25
C10
A   26
N13
A   27
O17
M  END
