5U6X_P6A_A_702
     RDKit          3D

 28 30  0  0  0  0  0  0  0  0999 V2000
   35.9330  164.6730   30.4220 C   0  0  0  0  0  0  0  0  0  0  0  0
   33.4400  162.6850   26.3040 C   0  0  0  0  0  0  0  0  0  0  0  0
   34.0980  163.9790   25.8400 C   0  0  0  0  0  0  0  0  0  0  0  0
   35.2110  164.4080   26.4150 C   0  0  0  0  0  0  0  0  0  0  0  0
   39.0970  163.8860   26.4390 C   0  0  0  0  0  0  0  0  0  0  0  0
   38.7630  164.2400   25.1440 C   0  0  0  0  0  0  0  0  0  0  0  0
   39.7040  163.6290   24.2990 C   0  0  0  0  0  0  0  0  0  0  0  0
   40.6150  162.9140   25.0920 C   0  0  0  0  0  0  0  0  0  0  0  0
   37.1370  164.6260   29.5050 C   0  0  0  0  0  0  0  0  0  0  0  0
   37.1370  164.1230   28.2210 C   0  0  0  0  0  0  0  0  0  0  0  0
   38.4560  164.2620   27.7590 C   0  0  0  0  0  0  0  0  0  0  0  0
   35.8610  163.6030   27.5360 C   0  0  0  0  0  0  0  0  0  0  0  0
   35.2750  162.4810   27.9450 C   0  0  0  0  0  0  0  0  0  0  0  0
   33.9870  161.9900   27.2800 C   0  0  0  0  0  0  0  0  0  0  0  0
   39.2030  164.7770   28.7440 N   0  0  0  0  0  0  0  0  0  0  0  0
   40.2320  163.0900   26.4050 O   0  0  0  0  0  0  0  0  0  0  0  0
   38.4060  165.0150   29.8560 O   0  0  0  0  0  0  0  0  0  0  0  0
   42.0380  161.9280   24.6310 Cl  0  0  0  0  0  0  0  0  0  0  0  0
   36.2690  164.6599   31.4693 H   0  0  0  0  0  0  0  0  0  0  0  0
   35.3627  165.5941   30.2314 H   0  0  0  0  0  0  0  0  0  0  0  0
   35.2926  163.7992   30.2314 H   0  0  0  0  0  0  0  0  0  0  0  0
   32.5135  162.3335   25.8265 H   0  0  0  0  0  0  0  0  0  0  0  0
   33.6457  164.5600   25.0227 H   0  0  0  0  0  0  0  0  0  0  0  0
   35.6698  165.3508   26.0822 H   0  0  0  0  0  0  0  0  0  0  0  0
   37.9216  164.8778   24.8352 H   0  0  0  0  0  0  0  0  0  0  0  0
   39.7237  163.6990   23.2014 H   0  0  0  0  0  0  0  0  0  0  0  0
   35.7196  161.9016   28.7676 H   0  0  0  0  0  0  0  0  0  0  0  0
   33.5170  161.0546   27.6179 H   0  0  0  0  0  0  0  0  0  0  0  0
  1  9  1  0
 17  9  1  0
 17 15  1  0
  9 10  2  0
 15 11  2  0
 10 11  1  0
 10 12  1  0
  4 12  2  0
  4  3  1  0
 11  5  1  0
 12 13  1  0
  3  2  2  0
  5 16  1  0
  5  6  2  0
 16  8  1  0
 13 14  2  0
  2 14  1  0
  6  7  1  0
  8 18  1  0
  8  7  2  0
  1 19  1  0
  1 20  1  0
  1 21  1  0
  2 22  1  0
  3 23  1  0
  4 24  1  0
  6 25  1  0
  7 26  1  0
 13 27  1  0
 14 28  1  0
A    1
C1
A    2
C10
A    3
C11
A    4
C12
A    5
C13
A    6
C14
A    7
C15
A    8
C16
A    9
C2
A   10
C3
A   11
C4
A   12
C7
A   13
C8
A   14
C9
A   15
N5
A   16
O17
A   17
O6
A   18
CL
M  END
