5U72_7ZV_C_301
     RDKit          3D

 31 32  0  0  0  0  0  0  0  0999 V2000
    0.9870   30.4140  249.6790 C   0  0  0  0  0  0  0  0  0  0  0  0
    1.3420   29.0950  249.4510 C   0  0  0  0  0  0  0  0  0  0  0  0
    1.7610   30.2340  251.9320 C   0  0  0  0  0  0  0  0  0  0  0  0
    1.1860   30.9850  250.9210 C   0  0  0  0  0  0  0  0  0  0  0  0
    4.2610   27.4150  255.0170 C   0  0  0  0  0  0  0  0  0  0  0  0
    2.8680   26.8860  254.7090 C   0  0  0  0  0  0  0  0  0  0  0  0
    2.1800   27.2940  253.5750 C   0  0  0  0  0  0  0  0  0  0  0  0
    1.8990   28.3570  250.4820 C   0  0  0  0  0  0  0  0  0  0  0  0
    0.9020   26.7870  253.3160 C   0  0  0  0  0  0  0  0  0  0  0  0
    0.3230   25.8780  254.1840 C   0  0  0  0  0  0  0  0  0  0  0  0
    1.0150   25.4690  255.3120 C   0  0  0  0  0  0  0  0  0  0  0  0
    2.0420   30.9860  253.4670 Cl  0  0  0  0  0  0  0  0  0  0  0  0
    2.2850   26.6910  250.1890 Cl  0  0  0  0  0  0  0  0  0  0  0  0
    2.1390   28.9030  251.7360 C   0  0  0  0  0  0  0  0  0  0  0  0
    2.7910   28.1950  252.7180 N   0  0  0  0  0  0  0  0  0  0  0  0
    0.4710   24.5550  256.1720 O   0  0  0  0  0  0  0  0  0  0  0  0
    2.2790   25.9700  255.5770 C   0  0  0  0  0  0  0  0  0  0  0  0
    5.3310   26.7240  254.2170 C   0  0  0  0  0  0  0  0  0  0  0  0
    6.4490   27.1860  254.0670 O   0  0  0  0  0  0  0  0  0  0  0  0
    4.9470   25.5780  253.7060 O   0  0  0  0  0  0  0  0  0  0  0  0
    0.5444   31.0099  248.8672 H   0  0  0  0  0  0  0  0  0  0  0  0
    1.1834   28.6389  248.4627 H   0  0  0  0  0  0  0  0  0  0  0  0
    0.8899   32.0282  251.1053 H   0  0  0  0  0  0  0  0  0  0  0  0
    4.4672   27.2631  256.0868 H   0  0  0  0  0  0  0  0  0  0  0  0
    4.2798   28.4815  254.7482 H   0  0  0  0  0  0  0  0  0  0  0  0
    0.3552   27.1123  252.4187 H   0  0  0  0  0  0  0  0  0  0  0  0
   -0.6825   25.4819  253.9790 H   0  0  0  0  0  0  0  0  0  0  0  0
    3.8045   28.3450  252.8239 H   0  0  0  0  0  0  0  0  0  0  0  0
    0.5498   24.6875  257.1499 H   0  0  0  0  0  0  0  0  0  0  0  0
    2.8200   25.6428  256.4772 H   0  0  0  0  0  0  0  0  0  0  0  0
    7.0005   27.4139  254.8569 H   0  0  0  0  0  0  0  0  0  0  0  0
  2  1  2  0
  2  8  1  0
  1  4  1  0
 13  8  1  0
  8 14  2  0
  4  3  2  0
 14  3  1  0
 14 15  1  0
  3 12  1  0
 15  7  1  0
  9  7  1  0
  9 10  2  0
  7  6  2  0
 20 18  2  0
 19 18  1  0
 10 11  1  0
 18  5  1  0
  6  5  1  0
  6 17  1  0
 11 17  2  0
 11 16  1  0
  1 21  1  0
  2 22  1  0
  4 23  1  0
  5 24  1  0
  5 25  1  0
  9 26  1  0
 10 27  1  0
 15 28  1  0
 16 29  1  0
 17 30  1  0
 19 31  1  0
A    1
C7
A    2
C6
A    3
C9
A    4
C8
A    5
C1
A    6
C2
A    7
C3
A    8
C5
A    9
C10
A   10
C11
A   11
C12
A   12
CL1
A   13
CL
A   14
C4
A   15
N
A   16
O2
A   17
C13
A   18
C
A   19
O1
A   20
O
M  END
