5U7J_7XV_A_1001
     RDKit          3D

 46 48  0  0  0  0  0  0  0  0999 V2000
    7.5250    4.3780    6.3210 N   0  0  0  0  0  0  0  0  0  0  0  0
    7.7890    4.3560    3.7980 C   0  0  0  0  0  0  0  0  0  0  0  0
    5.6220    3.2400    6.5090 N   0  0  0  0  0  0  0  0  0  0  0  0
    8.6220    5.0470    6.8480 C   0  0  0  0  0  0  0  0  0  0  0  0
    6.5870    3.8150    7.1970 C   0  0  0  0  0  0  0  0  0  0  0  0
    6.8030    3.8920    8.6100 C   0  0  0  0  0  0  0  0  0  0  0  0
   10.0530    7.7490    3.0640 C   0  0  0  0  0  0  0  0  0  0  0  0
    8.7490    5.0780    8.2490 C   0  0  0  0  0  0  0  0  0  0  0  0
   10.8090   11.0730    6.4220 C   0  0  0  0  0  0  0  0  0  0  0  0
    9.6920   10.3500    3.9350 C   0  0  0  0  0  0  0  0  0  0  0  0
    8.5190    1.9980    3.3490 C   0  0  0  0  0  0  0  0  0  0  0  0
    8.9720    3.4290    3.5290 C   0  0  0  0  0  0  0  0  0  0  0  0
    9.7350    3.8900    2.3100 C   0  0  0  0  0  0  0  0  0  0  0  0
    7.0440    4.0670    5.0650 C   0  0  0  0  0  0  0  0  0  0  0  0
    5.9170    3.4080    5.1580 N   0  0  0  0  0  0  0  0  0  0  0  0
    7.8510    4.4940    9.1050 N   0  0  0  0  0  0  0  0  0  0  0  0
    9.4180    5.6110    5.9130 O   0  0  0  0  0  0  0  0  0  0  0  0
   10.4610    6.5100    6.3810 C   0  0  0  0  0  0  0  0  0  0  0  0
   11.2070    7.0620    5.1870 C   0  0  0  0  0  0  0  0  0  0  0  0
   10.4530    8.0840    4.3550 C   0  0  0  0  0  0  0  0  0  0  0  0
    9.5190    8.7000    2.2110 C   0  0  0  0  0  0  0  0  0  0  0  0
    9.3320    9.9930    2.6470 C   0  0  0  0  0  0  0  0  0  0  0  0
   10.2750    9.4060    4.7780 C   0  0  0  0  0  0  0  0  0  0  0  0
   10.7750    9.7000    6.0190 O   0  0  0  0  0  0  0  0  0  0  0  0
    8.1669    5.3877    3.8502 H   0  0  0  0  0  0  0  0  0  0  0  0
    7.0764    4.1978    2.9751 H   0  0  0  0  0  0  0  0  0  0  0  0
    6.0715    3.4349    9.2927 H   0  0  0  0  0  0  0  0  0  0  0  0
   10.1631    6.7113    2.7159 H   0  0  0  0  0  0  0  0  0  0  0  0
    9.6160    5.5992    8.6811 H   0  0  0  0  0  0  0  0  0  0  0  0
   10.8105   11.1328    7.5204 H   0  0  0  0  0  0  0  0  0  0  0  0
   11.7192   11.5484    6.0277 H   0  0  0  0  0  0  0  0  0  0  0  0
    9.9235   11.5929    6.0277 H   0  0  0  0  0  0  0  0  0  0  0  0
    9.5184   11.3759    4.2920 H   0  0  0  0  0  0  0  0  0  0  0  0
    8.3719    1.5332    4.3351 H   0  0  0  0  0  0  0  0  0  0  0  0
    7.5715    1.9808    2.7905 H   0  0  0  0  0  0  0  0  0  0  0  0
    9.2840    1.4387    2.7905 H   0  0  0  0  0  0  0  0  0  0  0  0
    9.6365    3.4689    4.4047 H   0  0  0  0  0  0  0  0  0  0  0  0
   10.6368    4.4348    2.6262 H   0  0  0  0  0  0  0  0  0  0  0  0
   10.0265    3.0167    1.7079 H   0  0  0  0  0  0  0  0  0  0  0  0
    9.0975    4.5542    1.7079 H   0  0  0  0  0  0  0  0  0  0  0  0
   11.1585    5.9598    7.0296 H   0  0  0  0  0  0  0  0  0  0  0  0
   10.0115    7.3354    6.9526 H   0  0  0  0  0  0  0  0  0  0  0  0
   11.4673    6.2180    4.5313 H   0  0  0  0  0  0  0  0  0  0  0  0
   12.0785    7.5932    5.5972 H   0  0  0  0  0  0  0  0  0  0  0  0
    9.2435    8.4222    1.1829 H   0  0  0  0  0  0  0  0  0  0  0  0
    8.8960   10.7430    1.9707 H   0  0  0  0  0  0  0  0  0  0  0  0
 21 22  1  0
 21  7  2  0
 13 12  1  0
 22 10  2  0
  7 20  1  0
 11 12  1  0
 12  2  1  0
  2 14  1  0
 10 23  1  0
 20 23  2  0
 20 19  1  0
 23 24  1  0
 14 15  2  0
 14  1  1  0
 15  3  1  0
 19 18  1  0
 17 18  1  0
 17  4  1  0
 24  9  1  0
  1  4  1  0
  1  5  1  0
  3  5  2  0
  4  8  2  0
  5  6  1  0
  8 16  1  0
  6 16  2  0
  2 25  1  0
  2 26  1  0
  6 27  1  0
  7 28  1  0
  8 29  1  0
  9 30  1  0
  9 31  1  0
  9 32  1  0
 10 33  1  0
 11 34  1  0
 11 35  1  0
 11 36  1  0
 12 37  1  0
 13 38  1  0
 13 39  1  0
 13 40  1  0
 18 41  1  0
 18 42  1  0
 19 43  1  0
 19 44  1  0
 21 45  1  0
 22 46  1  0
A    1
N3
A    2
C4
A    3
N2
A    4
C7
A    5
C6
A    6
C9
A    7
C13
A    8
C8
A    9
C18
A   10
C16
A   11
C1
A   12
C2
A   13
C3
A   14
C5
A   15
N1
A   16
N4
A   17
O1
A   18
C10
A   19
C11
A   20
C12
A   21
C14
A   22
C15
A   23
C17
A   24
O2
M  END
