5U7R_81G_A_500
     RDKit          3D

 50 54  0  0  0  0  0  0  0  0999 V2000
   44.6540  -22.8760    2.9810 N   0  0  0  0  0  0  0  0  0  0  0  0
   44.9810  -22.1170    5.0200 C   0  0  0  0  0  0  0  0  0  0  0  0
   44.4100  -21.0870    4.2430 C   0  0  0  0  0  0  0  0  0  0  0  0
   44.1260  -19.7300    4.7770 C   0  0  0  0  0  0  0  0  0  0  0  0
   43.4980  -17.4940    4.8380 C   0  0  0  0  0  0  0  0  0  0  0  0
   43.2310  -13.7770    4.7740 C   0  0  0  0  0  0  0  0  0  0  0  0
   40.8940  -13.3110    3.9350 C   0  0  0  0  0  0  0  0  0  0  0  0
   40.4540  -14.7030    4.4020 C   0  0  0  0  0  0  0  0  0  0  0  0
   40.1890  -13.5660    1.5150 C   0  0  0  0  0  0  0  0  0  0  0  0
   39.3150  -13.2860    0.4750 C   0  0  0  0  0  0  0  0  0  0  0  0
   38.2190  -12.4560    0.6810 C   0  0  0  0  0  0  0  0  0  0  0  0
   37.9970  -11.9030    1.9330 C   0  0  0  0  0  0  0  0  0  0  0  0
   43.6670  -20.9200    1.7490 C   0  0  0  0  0  0  0  0  0  0  0  0
   44.2330  -21.6000    2.9650 C   0  0  0  0  0  0  0  0  0  0  0  0
   45.1150  -23.1710    4.2670 N   0  0  0  0  0  0  0  0  0  0  0  0
   43.6730  -18.6380    4.0950 C   0  0  0  0  0  0  0  0  0  0  0  0
   43.0650  -16.2310    4.3670 N   0  0  0  0  0  0  0  0  0  0  0  0
   42.7860  -15.1430    5.3310 C   0  0  0  0  0  0  0  0  0  0  0  0
   42.3830  -13.3380    3.5640 C   0  0  0  0  0  0  0  0  0  0  0  0
   40.7040  -12.3580    4.9870 O   0  0  0  0  0  0  0  0  0  0  0  0
   41.2720  -15.1550    5.6060 C   0  0  0  0  0  0  0  0  0  0  0  0
   39.9770  -13.0050    2.7680 C   0  0  0  0  0  0  0  0  0  0  0  0
   37.3680  -12.1840   -0.3320 F   0  0  0  0  0  0  0  0  0  0  0  0
   38.8730  -12.1850    2.9690 C   0  0  0  0  0  0  0  0  0  0  0  0
   43.3180  -15.3770    6.6740 N   0  0  0  0  0  0  0  0  0  0  0  0
   43.7730  -16.5720    7.1060 C   0  0  0  0  0  0  0  0  0  0  0  0
   44.1230  -16.6980    8.2620 O   0  0  0  0  0  0  0  0  0  0  0  0
   43.8530  -17.6500    6.1800 C   0  0  0  0  0  0  0  0  0  0  0  0
   44.3790  -19.2990    6.4620 S   0  0  0  0  0  0  0  0  0  0  0  0
   44.6394  -23.5257    2.1819 H   0  0  0  0  0  0  0  0  0  0  0  0
   45.2644  -22.0425    6.0802 H   0  0  0  0  0  0  0  0  0  0  0  0
   44.2836  -13.8473    4.4622 H   0  0  0  0  0  0  0  0  0  0  0  0
   43.0984  -13.0284    5.5690 H   0  0  0  0  0  0  0  0  0  0  0  0
   39.3904  -14.6701    4.6807 H   0  0  0  0  0  0  0  0  0  0  0  0
   40.6133  -15.4167    3.5802 H   0  0  0  0  0  0  0  0  0  0  0  0
   41.0488  -14.2314    1.3478 H   0  0  0  0  0  0  0  0  0  0  0  0
   39.4902  -13.7234   -0.5190 H   0  0  0  0  0  0  0  0  0  0  0  0
   37.1318  -11.2452    2.1026 H   0  0  0  0  0  0  0  0  0  0  0  0
   42.9925  -20.1096    2.0627 H   0  0  0  0  0  0  0  0  0  0  0  0
   44.4875  -20.5019    1.1474 H   0  0  0  0  0  0  0  0  0  0  0  0
   43.1069  -21.6511    1.1474 H   0  0  0  0  0  0  0  0  0  0  0  0
   43.4607  -18.6709    3.0162 H   0  0  0  0  0  0  0  0  0  0  0  0
   42.9445  -16.0698    3.3568 H   0  0  0  0  0  0  0  0  0  0  0  0
   42.5376  -14.0466    2.7370 H   0  0  0  0  0  0  0  0  0  0  0  0
   42.6929  -12.3275    3.2592 H   0  0  0  0  0  0  0  0  0  0  0  0
   40.7943  -12.8108    5.8627 H   0  0  0  0  0  0  0  0  0  0  0  0
   41.0616  -14.4797    6.4484 H   0  0  0  0  0  0  0  0  0  0  0  0
   40.9832  -16.1914    5.8349 H   0  0  0  0  0  0  0  0  0  0  0  0
   38.6920  -11.7537    3.9646 H   0  0  0  0  0  0  0  0  0  0  0  0
   43.3470  -14.5823    7.3287 H   0  0  0  0  0  0  0  0  0  0  0  0
 23 11  1  0
 10 11  1  0
 10  9  2  0
 11 12  2  0
  9 22  1  0
 13 14  1  0
 12 24  1  0
 22 24  2  0
 22  7  1  0
 14  1  1  0
 14  3  2  0
  1 15  1  0
 19  7  1  0
 19  6  1  0
  7  8  1  0
  7 20  1  0
 16  4  2  0
 16  5  1  0
  3  4  1  0
  3  2  1  0
 15  2  2  0
 17  5  1  0
 17 18  1  0
  8 21  1  0
  6 18  1  0
  4 29  1  0
  5 28  2  0
 18 21  1  0
 18 25  1  0
 28 29  1  0
 28 26  1  0
 25 26  1  0
 26 27  2  0
  1 30  1  0
  2 31  1  0
  6 32  1  0
  6 33  1  0
  8 34  1  0
  8 35  1  0
  9 36  1  0
 10 37  1  0
 12 38  1  0
 13 39  1  0
 13 40  1  0
 13 41  1  0
 16 42  1  0
 17 43  1  0
 19 44  1  0
 19 45  1  0
 20 46  1  0
 21 47  1  0
 21 48  1  0
 24 49  1  0
 25 50  1  0
A    1
N3
A    2
C6
A    3
C7
A    4
C8
A    5
C10
A    6
C13
A    7
C15
A    8
C17
A    9
C20
A   10
C21
A   11
C22
A   12
C24
A   13
C1
A   14
C2
A   15
N5
A   16
C9
A   17
N11
A   18
C12
A   19
C14
A   20
O16
A   21
C18
A   22
C19
A   23
F23
A   24
C25
A   25
N26
A   26
C27
A   27
O28
A   28
C29
A   29
S30
M  END
