5U8F_82G_A_501
     RDKit          3D

 56 60  0  0  0  0  0  0  0  0999 V2000
  -15.9620  -25.3990   25.7870 C   0  0  0  0  0  0  0  0  0  0  0  0
  -11.6220  -26.9880   22.0310 C   0  0  0  0  0  0  0  0  0  0  0  0
  -16.9380  -24.4050   28.2470 C   0  0  0  0  0  0  0  0  0  0  0  0
  -12.9280  -27.7220   20.1450 C   0  0  0  0  0  0  0  0  0  0  0  0
  -18.4540  -22.8010   25.4040 C   0  0  0  0  0  0  0  0  0  0  0  0
  -12.4250  -25.8700   22.1280 C   0  0  0  0  0  0  0  0  0  0  0  0
  -17.3880  -23.9330   27.0270 C   0  0  0  0  0  0  0  0  0  0  0  0
  -12.3020  -24.7560   23.1120 C   0  0  0  0  0  0  0  0  0  0  0  0
  -16.0710  -23.3740   22.8500 C   0  0  0  0  0  0  0  0  0  0  0  0
  -14.1730  -24.3880   21.5690 C   0  0  0  0  0  0  0  0  0  0  0  0
  -17.6300  -25.2300   22.7280 C   0  0  0  0  0  0  0  0  0  0  0  0
  -19.0490  -22.1890   27.7270 C   0  0  0  0  0  0  0  0  0  0  0  0
  -20.0630  -25.4620   23.0370 C   0  0  0  0  0  0  0  0  0  0  0  0
  -15.5070  -25.8890   26.9940 C   0  0  0  0  0  0  0  0  0  0  0  0
  -15.9840  -25.4020   28.1920 C   0  0  0  0  0  0  0  0  0  0  0  0
  -11.8870  -27.9160   21.0340 C   0  0  0  0  0  0  0  0  0  0  0  0
  -16.9300  -24.4010   25.8010 C   0  0  0  0  0  0  0  0  0  0  0  0
  -17.6080  -23.6860   24.7670 C   0  0  0  0  0  0  0  0  0  0  0  0
  -13.4610  -25.6640   21.2550 C   0  0  0  0  0  0  0  0  0  0  0  0
  -13.7200  -26.5930   20.2560 C   0  0  0  0  0  0  0  0  0  0  0  0
  -13.1420  -23.6780   22.4390 C   0  0  0  0  0  0  0  0  0  0  0  0
  -16.4820  -25.3800   21.7480 C   0  0  0  0  0  0  0  0  0  0  0  0
  -17.4560  -23.8180   23.2900 C   0  0  0  0  0  0  0  0  0  0  0  0
  -19.0490  -26.6040   21.1640 C   0  0  0  0  0  0  0  0  0  0  0  0
  -18.3110  -22.9650   26.7490 N   0  0  0  0  0  0  0  0  0  0  0  0
  -15.4010  -24.6060   22.3950 N   0  0  0  0  0  0  0  0  0  0  0  0
  -18.9550  -25.4080   22.0490 N   0  0  0  0  0  0  0  0  0  0  0  0
  -14.7260  -26.4150   19.3780 F   0  0  0  0  0  0  0  0  0  0  0  0
  -15.5684  -25.7886   24.8366 H   0  0  0  0  0  0  0  0  0  0  0  0
  -10.7873  -27.1407   22.7310 H   0  0  0  0  0  0  0  0  0  0  0  0
  -17.3165  -24.0107   29.2016 H   0  0  0  0  0  0  0  0  0  0  0  0
  -13.1253  -28.4608   19.3543 H   0  0  0  0  0  0  0  0  0  0  0  0
  -19.1283  -22.0857   24.9104 H   0  0  0  0  0  0  0  0  0  0  0  0
  -12.7146  -25.0360   24.0925 H   0  0  0  0  0  0  0  0  0  0  0  0
  -11.2664  -24.4545   23.3277 H   0  0  0  0  0  0  0  0  0  0  0  0
  -15.5236  -22.9247   23.6917 H   0  0  0  0  0  0  0  0  0  0  0  0
  -16.1140  -22.6111   22.0587 H   0  0  0  0  0  0  0  0  0  0  0  0
  -14.5023  -23.8582   20.6630 H   0  0  0  0  0  0  0  0  0  0  0  0
  -17.6159  -25.9935   23.5197 H   0  0  0  0  0  0  0  0  0  0  0  0
  -18.7536  -22.4996   28.7401 H   0  0  0  0  0  0  0  0  0  0  0  0
  -18.8257  -21.1205   27.5914 H   0  0  0  0  0  0  0  0  0  0  0  0
  -20.1274  -22.3584   27.5914 H   0  0  0  0  0  0  0  0  0  0  0  0
  -19.6475  -25.4418   24.0553 H   0  0  0  0  0  0  0  0  0  0  0  0
  -20.7247  -24.5950   22.8936 H   0  0  0  0  0  0  0  0  0  0  0  0
  -20.6372  -26.3892   22.8936 H   0  0  0  0  0  0  0  0  0  0  0  0
  -14.7477  -26.6849   27.0003 H   0  0  0  0  0  0  0  0  0  0  0  0
  -15.5934  -25.8197   29.1317 H   0  0  0  0  0  0  0  0  0  0  0  0
  -11.2613  -28.8168   20.9499 H   0  0  0  0  0  0  0  0  0  0  0  0
  -12.5021  -23.0353   21.8166 H   0  0  0  0  0  0  0  0  0  0  0  0
  -13.6352  -23.0421   23.1889 H   0  0  0  0  0  0  0  0  0  0  0  0
  -16.7404  -24.9566   20.7662 H   0  0  0  0  0  0  0  0  0  0  0  0
  -16.2110  -26.4274   21.5493 H   0  0  0  0  0  0  0  0  0  0  0  0
  -18.2674  -23.1855   22.9006 H   0  0  0  0  0  0  0  0  0  0  0  0
  -19.1204  -27.5119   21.7809 H   0  0  0  0  0  0  0  0  0  0  0  0
  -19.9434  -26.5209   20.5290 H   0  0  0  0  0  0  0  0  0  0  0  0
  -18.1526  -26.6617   20.5290 H   0  0  0  0  0  0  0  0  0  0  0  0
 28 20  1  0
  4 20  2  0
  4 16  1  0
 20 19  1  0
 16  2  2  0
 24 27  1  0
 19 10  1  0
 19  6  2  0
 10 26  1  0
 10 21  1  0
 22 26  1  0
 22 11  1  0
  2  6  1  0
 27 11  1  0
 27 13  1  0
  6  8  1  0
 26  9  1  0
 21  8  1  0
 11 23  1  0
  9 23  1  0
 23 18  1  0
 18  5  2  0
 18 17  1  0
  5 25  1  0
  1 17  2  0
  1 14  1  0
 17  7  1  0
 25  7  1  0
 25 12  1  0
 14 15  2  0
  7  3  2  0
 15  3  1  0
  1 29  1  0
  2 30  1  0
  3 31  1  0
  4 32  1  0
  5 33  1  0
  8 34  1  0
  8 35  1  0
  9 36  1  0
  9 37  1  0
 10 38  1  0
 11 39  1  0
 12 40  1  0
 12 41  1  0
 12 42  1  0
 13 43  1  0
 13 44  1  0
 13 45  1  0
 14 46  1  0
 15 47  1  0
 16 48  1  0
 21 49  1  0
 21 50  1  0
 22 51  1  0
 22 52  1  0
 23 53  1  0
 24 54  1  0
 24 55  1  0
 24 56  1  0
A    1
C4
A    2
C5
A    3
C6
A    4
C7
A    5
C8
A    6
C10
A    7
C13
A    8
C15
A    9
C17
A   10
C20
A   11
C21
A   12
C22
A   13
C24
A   14
C1
A   15
C2
A   16
C3
A   17
C9
A   18
C11
A   19
C12
A   20
C14
A   21
C16
A   22
C18
A   23
C19
A   24
C23
A   25
N25
A   26
N26
A   27
N27
A   28
F28
M  END
