5UAB_84M_A_1401
     RDKit          3D

 38 42  0  0  0  0  0  0  0  0999 V2000
   -7.6230    7.3060   20.1030 C   0  0  0  0  0  0  0  0  0  0  0  0
   -6.6960    8.7740   21.4030 C   0  0  0  0  0  0  0  0  0  0  0  0
   -3.4830   11.2980   19.6020 C   0  0  0  0  0  0  0  0  0  0  0  0
   -8.5130    6.8440   19.1110 C   0  0  0  0  0  0  0  0  0  0  0  0
   -4.1110   10.6920   20.6210 C   0  0  0  0  0  0  0  0  0  0  0  0
   -9.3620    9.1160   18.9090 C   0  0  0  0  0  0  0  0  0  0  0  0
   -6.0150   15.2530   15.8930 C   0  0  0  0  0  0  0  0  0  0  0  0
   -6.4650   17.2780   14.3410 C   0  0  0  0  0  0  0  0  0  0  0  0
   -5.9450   13.4430   18.2790 C   0  0  0  0  0  0  0  0  0  0  0  0
   -4.8940   13.7200   17.4320 C   0  0  0  0  0  0  0  0  0  0  0  0
   -4.1680   12.2520   18.8180 C   0  0  0  0  0  0  0  0  0  0  0  0
   -9.3490    7.7200   18.5390 C   0  0  0  0  0  0  0  0  0  0  0  0
   -8.5150    9.5510   19.8520 C   0  0  0  0  0  0  0  0  0  0  0  0
   -5.5200   11.0920   20.8470 C   0  0  0  0  0  0  0  0  0  0  0  0
   -6.8490   16.0490   13.5700 C   0  0  0  0  0  0  0  0  0  0  0  0
   -5.7810   15.9720   14.6230 C   0  0  0  0  0  0  0  0  0  0  0  0
   -3.7960   12.9740   17.7810 N   0  0  0  0  0  0  0  0  0  0  0  0
   -6.7110    6.6950   20.8260 N   0  0  0  0  0  0  0  0  0  0  0  0
   -6.1250    7.6180   21.6470 N   0  0  0  0  0  0  0  0  0  0  0  0
   -6.1820   11.9640   20.1550 N   0  0  0  0  0  0  0  0  0  0  0  0
   -5.4710   12.5130   19.1550 N   0  0  0  0  0  0  0  0  0  0  0  0
   -7.6550    8.6390   20.4340 N   0  0  0  0  0  0  0  0  0  0  0  0
   -4.8850   14.6070   16.3600 N   0  0  0  0  0  0  0  0  0  0  0  0
   -7.1130   15.2910   16.4360 O   0  0  0  0  0  0  0  0  0  0  0  0
   -6.3140   10.2810   22.1890 S   0  0  0  0  0  0  0  0  0  0  0  0
   -2.4347   11.0518   19.3773 H   0  0  0  0  0  0  0  0  0  0  0  0
   -8.5202    5.7851   18.8131 H   0  0  0  0  0  0  0  0  0  0  0  0
   -3.6098    9.9427   21.2513 H   0  0  0  0  0  0  0  0  0  0  0  0
  -10.0591    9.8141   18.4224 H   0  0  0  0  0  0  0  0  0  0  0  0
   -5.9154   18.0903   13.8429 H   0  0  0  0  0  0  0  0  0  0  0  0
   -7.0092   18.0175   14.9468 H   0  0  0  0  0  0  0  0  0  0  0  0
   -6.9540   13.8804   18.2534 H   0  0  0  0  0  0  0  0  0  0  0  0
  -10.0459    7.3661   17.7650 H   0  0  0  0  0  0  0  0  0  0  0  0
   -8.5045   10.6083   20.1555 H   0  0  0  0  0  0  0  0  0  0  0  0
   -7.8264   15.5747   13.7422 H   0  0  0  0  0  0  0  0  0  0  0  0
   -6.9100   15.7873   12.5033 H   0  0  0  0  0  0  0  0  0  0  0  0
   -4.7361   15.6291   14.6465 H   0  0  0  0  0  0  0  0  0  0  0  0
   -3.9881   14.7925   15.8888 H   0  0  0  0  0  0  0  0  0  0  0  0
 15  8  1  0
 15 16  1  0
  8 16  1  0
 16  7  1  0
  7 23  1  0
  7 24  2  0
 23 10  1  0
 10 17  1  0
 10  9  2  0
 17 11  2  0
  9 21  1  0
 12  6  1  0
 12  4  2  0
 11 21  1  0
 11  3  1  0
  6 13  2  0
  4  1  1  0
 21 20  1  0
  3  5  2  0
 13 22  1  0
  1 22  1  0
  1 18  2  0
 20 14  2  0
 22  2  1  0
  5 14  1  0
 18 19  1  0
 14 25  1  0
  2 19  2  0
  2 25  1  0
  3 26  1  0
  4 27  1  0
  5 28  1  0
  6 29  1  0
  8 30  1  0
  8 31  1  0
  9 32  1  0
 12 33  1  0
 13 34  1  0
 15 35  1  0
 15 36  1  0
 16 37  1  0
 23 38  1  0
A    1
C4
A    2
C5
A    3
C6
A    4
C7
A    5
C8
A    6
C10
A    7
C13
A    8
C15
A    9
C1
A   10
C2
A   11
C3
A   12
C9
A   13
C11
A   14
C12
A   15
C14
A   16
C16
A   17
N17
A   18
N18
A   19
N19
A   20
N20
A   21
N21
A   22
N22
A   23
N23
A   24
O24
A   25
S25
M  END
