1Q1K_PRT_A_500
     RDKit          3D

 69 72  0  0  0  0  0  0  0  0999 V2000
   41.7840   37.6650   41.7190 O   0  0  0  0  0  0  0  0  0  0  0  0
   42.8280   38.7600   41.8320 P   0  0  0  0  0  0  0  0  0  0  0  0
   43.7620   38.2370   42.8860 O   0  0  0  0  0  0  0  0  0  0  0  0
   43.4800   39.4630   40.6610 O   0  0  0  0  0  0  0  0  0  0  0  0
   41.9490   39.9580   42.4630 O   0  0  0  0  0  0  0  0  0  0  0  0
   40.8480   39.7780   43.6440 P   0  0  0  0  0  0  0  0  0  0  0  0
   39.4890   40.2720   43.1510 O   0  0  0  0  0  0  0  0  0  0  0  0
   40.9450   38.3400   44.0960 O   0  0  0  0  0  0  0  0  0  0  0  0
   41.4670   40.8020   44.7860 O   0  0  0  0  0  0  0  0  0  0  0  0
   41.0560   40.9690   46.3740 P   0  0  0  0  0  0  0  0  0  0  0  0
   41.8750   40.0210   47.2600 O   0  0  0  0  0  0  0  0  0  0  0  0
   39.5300   40.9950   46.4190 O   0  0  0  0  0  0  0  0  0  0  0  0
   41.4710   42.4860   46.7670 O   0  0  0  0  0  0  0  0  0  0  0  0
   41.9990   42.7340   48.1020 C   0  0  0  0  0  0  0  0  0  0  0  0
   43.3180   42.0180   48.1680 C   0  0  0  0  0  0  0  0  0  0  0  0
   44.3490   42.2860   47.1810 O   0  0  0  0  0  0  0  0  0  0  0  0
   43.8060   41.7160   49.3420 C   0  0  0  0  0  0  0  0  0  0  0  0
   43.0630   41.2120   50.2310 O   0  0  0  0  0  0  0  0  0  0  0  0
   45.1070   42.2420   49.3000 C   0  0  0  0  0  0  0  0  0  0  0  0
   46.1360   41.7370   49.8270 O   0  0  0  0  0  0  0  0  0  0  0  0
   45.1510   43.0230   48.1590 C   0  0  0  0  0  0  0  0  0  0  0  0
   45.8780   44.1020   48.0110 N   0  0  0  0  0  0  0  0  0  0  0  0
   46.4570   44.9040   48.9500 C   0  0  0  0  0  0  0  0  0  0  0  0
   45.8240   44.7490   46.8290 C   0  0  0  0  0  0  0  0  0  0  0  0
   46.4430   46.0750   47.1050 C   0  0  0  0  0  0  0  0  0  0  0  0
   46.8010   46.1100   48.4100 N   0  0  0  0  0  0  0  0  0  0  0  0
   46.5280   47.0180   45.9560 C   0  0  0  0  0  0  0  0  0  0  0  0
   47.0930   48.2400   46.1680 N   0  0  0  0  0  0  0  0  0  0  0  0
   45.3690   44.4700   45.5800 N   0  0  0  0  0  0  0  0  0  0  0  0
   45.4790   45.3870   44.5740 C   0  0  0  0  0  0  0  0  0  0  0  0
   46.0250   46.6340   44.7470 N   0  0  0  0  0  0  0  0  0  0  0  0
   46.1630   47.5210   43.6960 C   0  0  0  0  0  0  0  0  0  0  0  0
   45.2610   48.2290   43.0020 C   0  0  0  0  0  0  0  0  0  0  0  0
   44.2940   47.7490   42.4390 O   0  0  0  0  0  0  0  0  0  0  0  0
   45.8440   49.3260   42.5350 C   0  0  0  0  0  0  0  0  0  0  0  0
   45.5340   49.8180   41.4590 O   0  0  0  0  0  0  0  0  0  0  0  0
   47.4880   48.0500   43.4130 O   0  0  0  0  0  0  0  0  0  0  0  0
   47.0780   49.3820   43.0350 C   0  0  0  0  0  0  0  0  0  0  0  0
   47.7390   50.4730   43.4610 C   0  0  0  0  0  0  0  0  0  0  0  0
   48.7370   50.3840   44.5270 O   0  0  0  0  0  0  0  0  0  0  0  0
   49.5650   51.7040   44.9590 P   0  0  0  0  0  0  0  0  0  0  0  0
   50.8920   51.1970   45.4360 O   0  0  0  0  0  0  0  0  0  0  0  0
   49.8000   52.5080   43.7070 O   0  0  0  0  0  0  0  0  0  0  0  0
   48.8550   52.3790   46.1140 O   0  0  0  0  0  0  0  0  0  0  0  0
   41.5089   37.3765   42.6252 H   0  0  0  0  0  0  0  0  0  0  0  0
   44.1133   40.1458   40.9970 H   0  0  0  0  0  0  0  0  0  0  0  0
   40.9474   38.3045   45.0854 H   0  0  0  0  0  0  0  0  0  0  0  0
   41.6988   40.2250   48.2126 H   0  0  0  0  0  0  0  0  0  0  0  0
   42.1419   43.8129   48.2617 H   0  0  0  0  0  0  0  0  0  0  0  0
   41.3084   42.3767   48.8801 H   0  0  0  0  0  0  0  0  0  0  0  0
   42.8730   41.0861   47.7892 H   0  0  0  0  0  0  0  0  0  0  0  0
   43.9306   40.9758   50.1461 H   0  0  0  0  0  0  0  0  0  0  0  0
   43.4124   41.4490   51.1264 H   0  0  0  0  0  0  0  0  0  0  0  0
   45.3055   42.7691   50.2449 H   0  0  0  0  0  0  0  0  0  0  0  0
   46.0551   41.7767   50.8129 H   0  0  0  0  0  0  0  0  0  0  0  0
   44.2781   43.6450   48.4061 H   0  0  0  0  0  0  0  0  0  0  0  0
   46.6240   44.6183   49.9990 H   0  0  0  0  0  0  0  0  0  0  0  0
   47.4590   48.4836   47.0995 H   0  0  0  0  0  0  0  0  0  0  0  0
   45.1113   45.1121   43.5744 H   0  0  0  0  0  0  0  0  0  0  0  0
   45.6386   46.5714   43.5136 H   0  0  0  0  0  0  0  0  0  0  0  0
   44.4753   48.4659   43.7345 H   0  0  0  0  0  0  0  0  0  0  0  0
   43.6453   47.4270   43.1140 H   0  0  0  0  0  0  0  0  0  0  0  0
   45.3017   50.2148   42.8899 H   0  0  0  0  0  0  0  0  0  0  0  0
   45.0126   50.6455   41.6125 H   0  0  0  0  0  0  0  0  0  0  0  0
   47.6379   49.9518   42.2788 H   0  0  0  0  0  0  0  0  0  0  0  0
   48.2561   50.8873   42.5830 H   0  0  0  0  0  0  0  0  0  0  0  0
   46.9418   51.0707   43.9270 H   0  0  0  0  0  0  0  0  0  0  0  0
   50.9067   51.1914   46.4259 H   0  0  0  0  0  0  0  0  0  0  0  0
   49.2162   52.0356   46.9694 H   0  0  0  0  0  0  0  0  0  0  0  0
 36 35  1  0
 43 41  2  0
 35 38  1  0
 35 33  1  0
 38 39  1  0
 38 37  1  0
 39 40  1  0
 34 33  1  0
 33 32  1  0
 41 40  1  0
 41 44  1  0
 41 42  1  0
  7  6  2  0
 37 32  1  0
 32 31  1  0
  3  2  2  0
 12 10  2  0
  8  6  1  0
  6  5  1  0
  6  9  1  0
  4  2  1  0
 31 30  1  0
 31 27  1  0
  2  5  1  0
  2  1  1  0
 30 29  2  0
 28 27  2  3
 10  9  1  0
 10 11  1  0
 10 13  1  0
 27 25  1  0
 29 24  1  0
 13 14  1  0
 25 24  2  0
 25 26  1  0
 24 22  1  0
 26 23  2  0
 14 15  1  0
 17 18  1  0
 17 15  1  0
 17 19  1  0
 22 23  1  0
 22 21  1  0
 15 16  1  0
 16 21  1  0
 19 21  1  0
 19 20  1  0
  1 45  1  0
  4 46  1  0
  8 47  1  0
 11 48  1  0
 14 49  1  0
 14 50  1  0
 15 51  1  0
 17 52  1  0
 18 53  1  0
 19 54  1  0
 20 55  1  0
 21 56  1  0
 23 57  1  0
 28 58  1  0
 30 59  1  0
 32 60  1  0
 33 61  1  0
 34 62  1  0
 35 63  1  0
 36 64  1  0
 38 65  1  0
 39 66  1  0
 39 67  1  0
 42 68  1  0
 44 69  1  0
A    1
O1G
A    2
PG
A    3
O2G
A    4
O3G
A    5
O3B
A    6
PB
A    7
O1B
A    8
O2B
A    9
O3A
A   10
PA
A   11
O1A
A   12
O2A
A   13
O5'
A   14
C5'
A   15
C4'
A   16
O4'
A   17
C3'
A   18
O3'
A   19
C2'
A   20
O2'
A   21
C1'
A   22
N9
A   23
C8
A   24
C4
A   25
C5
A   26
N7
A   27
C6
A   28
N6
A   29
N3
A   30
C2
A   31
N1
A   32
C11
A   33
C12
A   34
O12
A   35
C13
A   36
O13
A   37
O14
A   38
C14
A   39
C15
A   40
O15
A   41
P
A   42
O3P
A   43
O1P
A   44
O2P
M  END
