5UEQ_87M_A_501
     RDKit          3D

 50 53  0  0  0  0  0  0  0  0999 V2000
   20.1380   -6.8470   22.5460 C   0  0  0  0  0  0  0  0  0  0  0  0
   16.2860   -6.5650   24.6110 C   0  0  0  0  0  0  0  0  0  0  0  0
   15.6760   -8.7750   25.3230 C   0  0  0  0  0  0  0  0  0  0  0  0
   19.2000   -7.5450   23.2790 C   0  0  0  0  0  0  0  0  0  0  0  0
   18.6100   -6.7510   20.6930 C   0  0  0  0  0  0  0  0  0  0  0  0
   15.5380   -8.8460   20.7680 C   0  0  0  0  0  0  0  0  0  0  0  0
   16.3520   -7.9370   24.4570 C   0  0  0  0  0  0  0  0  0  0  0  0
   16.3820   -7.7450   20.7400 C   0  0  0  0  0  0  0  0  0  0  0  0
   15.6250  -10.0760   21.5120 C   0  0  0  0  0  0  0  0  0  0  0  0
   20.0340   -3.2250   18.8220 C   0  0  0  0  0  0  0  0  0  0  0  0
   19.7580   -4.6180   18.2960 C   0  0  0  0  0  0  0  0  0  0  0  0
   14.8750   -6.8670   26.5180 C   0  0  0  0  0  0  0  0  0  0  0  0
   15.5480   -6.0250   25.6460 C   0  0  0  0  0  0  0  0  0  0  0  0
   14.9330   -8.2380   26.3580 C   0  0  0  0  0  0  0  0  0  0  0  0
   17.6580   -7.4570   21.3990 C   0  0  0  0  0  0  0  0  0  0  0  0
   14.4410   -8.6250   19.9140 C   0  0  0  0  0  0  0  0  0  0  0  0
   19.8420   -6.4550   21.2550 C   0  0  0  0  0  0  0  0  0  0  0  0
   17.9770   -7.8310   22.7000 C   0  0  0  0  0  0  0  0  0  0  0  0
   14.6120   -7.3720   19.3610 C   0  0  0  0  0  0  0  0  0  0  0  0
   13.3910   -9.6060   19.7660 C   0  0  0  0  0  0  0  0  0  0  0  0
   13.7860   -6.5950   18.4150 C   0  0  0  0  0  0  0  0  0  0  0  0
   14.6730  -10.9590   21.3980 N   0  0  0  0  0  0  0  0  0  0  0  0
   15.7970   -6.8690   19.8490 N   0  0  0  0  0  0  0  0  0  0  0  0
   13.6000  -10.7380   20.5480 N   0  0  0  0  0  0  0  0  0  0  0  0
   20.8470   -5.7030   20.5650 N   0  0  0  0  0  0  0  0  0  0  0  0
   12.4040   -9.4690   19.0520 O   0  0  0  0  0  0  0  0  0  0  0  0
   22.2850   -5.2340   18.4980 O   0  0  0  0  0  0  0  0  0  0  0  0
   20.5930   -7.0940   18.3690 O   0  0  0  0  0  0  0  0  0  0  0  0
   17.0810   -8.5610   23.4520 O   0  0  0  0  0  0  0  0  0  0  0  0
   20.9870   -5.7880   18.8550 S   0  0  0  0  0  0  0  0  0  0  0  0
   21.1159   -6.6042   22.9873 H   0  0  0  0  0  0  0  0  0  0  0  0
   16.8197   -5.9051   23.9112 H   0  0  0  0  0  0  0  0  0  0  0  0
   15.7288   -9.8656   25.1895 H   0  0  0  0  0  0  0  0  0  0  0  0
   19.4214   -7.8686   24.3068 H   0  0  0  0  0  0  0  0  0  0  0  0
   18.3880   -6.4179   19.6684 H   0  0  0  0  0  0  0  0  0  0  0  0
   16.4857  -10.2683   22.1695 H   0  0  0  0  0  0  0  0  0  0  0  0
   20.0308   -3.2411   19.9219 H   0  0  0  0  0  0  0  0  0  0  0  0
   21.0169   -2.8856   18.4631 H   0  0  0  0  0  0  0  0  0  0  0  0
   19.2548   -2.5365   18.4631 H   0  0  0  0  0  0  0  0  0  0  0  0
   18.7685   -4.9435   18.6496 H   0  0  0  0  0  0  0  0  0  0  0  0
   19.7909   -4.5834   17.1970 H   0  0  0  0  0  0  0  0  0  0  0  0
   14.2893   -6.4393   27.3451 H   0  0  0  0  0  0  0  0  0  0  0  0
   15.4945   -4.9342   25.7776 H   0  0  0  0  0  0  0  0  0  0  0  0
   14.3909   -8.8989   27.0504 H   0  0  0  0  0  0  0  0  0  0  0  0
   13.0970   -5.9469   18.9765 H   0  0  0  0  0  0  0  0  0  0  0  0
   14.4382   -5.9755   17.7819 H   0  0  0  0  0  0  0  0  0  0  0  0
   13.2075   -7.2839   17.7819 H   0  0  0  0  0  0  0  0  0  0  0  0
   16.1952   -5.9570   19.5834 H   0  0  0  0  0  0  0  0  0  0  0  0
   12.8903  -11.4823   20.4899 H   0  0  0  0  0  0  0  0  0  0  0  0
   21.4927   -5.1048   21.0999 H   0  0  0  0  0  0  0  0  0  0  0  0
 11 10  1  0
 11 30  1  0
 28 30  2  0
 21 19  1  0
 27 30  2  0
 30 25  1  0
 26 20  2  0
 19 23  1  0
 19 16  2  0
 20 16  1  0
 20 24  1  0
 23  8  1  0
 16  6  1  0
 24 22  1  0
 25 17  1  0
  5 17  1  0
  5 15  2  0
  8  6  2  0
  8 15  1  0
  6  9  1  0
 17  1  2  0
 22  9  2  0
 15 18  1  0
  1  4  1  0
 18  4  2  0
 18 29  1  0
 29  7  1  0
  7  2  2  0
  7  3  1  0
  2 13  1  0
  3 14  2  0
 13 12  2  0
 14 12  1  0
  1 31  1  0
  2 32  1  0
  3 33  1  0
  4 34  1  0
  5 35  1  0
  9 36  1  0
 10 37  1  0
 10 38  1  0
 10 39  1  0
 11 40  1  0
 11 41  1  0
 12 42  1  0
 13 43  1  0
 14 44  1  0
 21 45  1  0
 21 46  1  0
 21 47  1  0
 23 48  1  0
 24 49  1  0
 25 50  1  0
A    1
C4
A    2
C5
A    3
C6
A    4
C7
A    5
C8
A    6
C10
A    7
C13
A    8
C15
A    9
C17
A   10
C20
A   11
C21
A   12
C1
A   13
C2
A   14
C3
A   15
C9
A   16
C11
A   17
C12
A   18
C14
A   19
C16
A   20
C18
A   21
C19
A   22
N22
A   23
N23
A   24
N24
A   25
N25
A   26
O26
A   27
O27
A   28
O28
A   29
O29
A   30
S30
M  END
