5UER_87P_A_501
     RDKit          3D

 51 54  0  0  0  0  0  0  0  0999 V2000
   12.6300   14.4720   19.2230 C   0  0  0  0  0  0  0  0  0  0  0  0
   16.2350   12.8600   21.0650 C   0  0  0  0  0  0  0  0  0  0  0  0
   17.4170   14.6920   22.0830 C   0  0  0  0  0  0  0  0  0  0  0  0
   13.7100   14.8180   20.0040 C   0  0  0  0  0  0  0  0  0  0  0  0
   14.1050   13.9940   17.3850 C   0  0  0  0  0  0  0  0  0  0  0  0
   18.4500   14.0100   16.4180 C   0  0  0  0  0  0  0  0  0  0  0  0
   16.5600   14.2060   21.1130 C   0  0  0  0  0  0  0  0  0  0  0  0
   16.5250   14.3610   17.5690 C   0  0  0  0  0  0  0  0  0  0  0  0
   19.3760   13.3550   15.5240 C   0  0  0  0  0  0  0  0  0  0  0  0
   17.8020   11.3500   15.6630 C   0  0  0  0  0  0  0  0  0  0  0  0
   19.6510   16.2000   17.2030 C   0  0  0  0  0  0  0  0  0  0  0  0
   12.2250   12.2320   15.0670 C   0  0  0  0  0  0  0  0  0  0  0  0
   17.6460   12.4950   22.9620 C   0  0  0  0  0  0  0  0  0  0  0  0
   16.7860   12.0090   22.0000 C   0  0  0  0  0  0  0  0  0  0  0  0
   17.9660   13.8360   23.0120 C   0  0  0  0  0  0  0  0  0  0  0  0
   15.1990   14.3520   18.1490 C   0  0  0  0  0  0  0  0  0  0  0  0
   17.1650   13.4950   16.7070 C   0  0  0  0  0  0  0  0  0  0  0  0
   12.8280   14.0670   17.9150 C   0  0  0  0  0  0  0  0  0  0  0  0
   14.9760   14.7580   19.4550 C   0  0  0  0  0  0  0  0  0  0  0  0
   18.5720   15.2050   17.1040 C   0  0  0  0  0  0  0  0  0  0  0  0
   16.6690   12.2430   16.1230 C   0  0  0  0  0  0  0  0  0  0  0  0
   18.8540   12.0860   14.8610 C   0  0  0  0  0  0  0  0  0  0  0  0
   17.4060   15.3890   17.7890 N   0  0  0  0  0  0  0  0  0  0  0  0
   11.6500   13.6900   17.1900 N   0  0  0  0  0  0  0  0  0  0  0  0
   20.5020   13.7740   15.2720 O   0  0  0  0  0  0  0  0  0  0  0  0
   10.1590   13.7510   15.0770 O   0  0  0  0  0  0  0  0  0  0  0  0
   12.4650   14.8300   14.9730 O   0  0  0  0  0  0  0  0  0  0  0  0
   16.0490   15.1510   20.2290 O   0  0  0  0  0  0  0  0  0  0  0  0
   11.5490   13.8300   15.4880 S   0  0  0  0  0  0  0  0  0  0  0  0
   11.6123   14.5175   19.6380 H   0  0  0  0  0  0  0  0  0  0  0  0
   15.5496   12.4769   20.2947 H   0  0  0  0  0  0  0  0  0  0  0  0
   17.6608   15.7642   22.1129 H   0  0  0  0  0  0  0  0  0  0  0  0
   13.5670   15.1367   21.0471 H   0  0  0  0  0  0  0  0  0  0  0  0
   14.2492   13.6492   16.3504 H   0  0  0  0  0  0  0  0  0  0  0  0
   17.3831   10.5481   15.0373 H   0  0  0  0  0  0  0  0  0  0  0  0
   18.2944   10.9565   16.5645 H   0  0  0  0  0  0  0  0  0  0  0  0
   19.8686   16.4007   18.2624 H   0  0  0  0  0  0  0  0  0  0  0  0
   20.5545   15.8114   16.7103 H   0  0  0  0  0  0  0  0  0  0  0  0
   19.3367   17.1319   16.7103 H   0  0  0  0  0  0  0  0  0  0  0  0
   12.4591   11.6786   15.9884 H   0  0  0  0  0  0  0  0  0  0  0  0
   11.4890   11.6665   14.4766 H   0  0  0  0  0  0  0  0  0  0  0  0
   13.1434   12.3664   14.4766 H   0  0  0  0  0  0  0  0  0  0  0  0
   18.0824   11.8047   23.6989 H   0  0  0  0  0  0  0  0  0  0  0  0
   16.5382   10.9375   21.9782 H   0  0  0  0  0  0  0  0  0  0  0  0
   18.6509   14.2168   23.7840 H   0  0  0  0  0  0  0  0  0  0  0  0
   16.0303   12.4812   15.2597 H   0  0  0  0  0  0  0  0  0  0  0  0
   16.1023   11.7052   16.8974 H   0  0  0  0  0  0  0  0  0  0  0  0
   18.4170   12.3600   13.8894 H   0  0  0  0  0  0  0  0  0  0  0  0
   19.7122   11.4042   14.7676 H   0  0  0  0  0  0  0  0  0  0  0  0
   17.2119   16.1986   18.3954 H   0  0  0  0  0  0  0  0  0  0  0  0
   10.8397   13.3237   17.7098 H   0  0  0  0  0  0  0  0  0  0  0  0
 22  9  1  0
 22 10  1  0
 27 29  2  0
 12 29  1  0
 26 29  2  0
 25  9  2  0
 29 24  1  0
  9  6  1  0
 10 21  1  0
 21 17  1  0
  6 17  1  0
  6 20  2  0
 17  8  2  0
 20 11  1  0
 20 23  1  0
 24 18  1  0
  5 18  1  0
  5 16  2  0
  8 23  1  0
  8 16  1  0
 18  1  2  0
 16 19  1  0
  1  4  1  0
 19  4  2  0
 19 28  1  0
 28  7  1  0
  2  7  2  0
  2 14  1  0
  7  3  1  0
 14 13  2  0
  3 15  2  0
 13 15  1  0
  1 30  1  0
  2 31  1  0
  3 32  1  0
  4 33  1  0
  5 34  1  0
 10 35  1  0
 10 36  1  0
 11 37  1  0
 11 38  1  0
 11 39  1  0
 12 40  1  0
 12 41  1  0
 12 42  1  0
 13 43  1  0
 14 44  1  0
 15 45  1  0
 21 46  1  0
 21 47  1  0
 22 48  1  0
 22 49  1  0
 23 50  1  0
 24 51  1  0
A    1
C4
A    2
C5
A    3
C6
A    4
C7
A    5
C8
A    6
C10
A    7
C13
A    8
C15
A    9
C17
A   10
C20
A   11
C21
A   12
C22
A   13
C1
A   14
C2
A   15
C3
A   16
C9
A   17
C11
A   18
C12
A   19
C14
A   20
C16
A   21
C18
A   22
C19
A   23
N23
A   24
N24
A   25
O25
A   26
O26
A   27
O27
A   28
O28
A   29
S29
M  END
