5UEX_89D_A_501
     RDKit          3D

 60 63  0  0  0  0  0  0  0  0999 V2000
   13.4910   13.6830   24.2620 C   0  0  0  0  0  0  0  0  0  0  0  0
   13.0870   11.3290   24.2570 C   0  0  0  0  0  0  0  0  0  0  0  0
   12.0450   12.1130   18.7650 C   0  0  0  0  0  0  0  0  0  0  0  0
   13.4920   13.7250   22.8780 C   0  0  0  0  0  0  0  0  0  0  0  0
    9.6640   11.8460   18.7590 C   0  0  0  0  0  0  0  0  0  0  0  0
   13.2890   12.5380   22.1840 C   0  0  0  0  0  0  0  0  0  0  0  0
   15.1480   13.3900   17.0330 C   0  0  0  0  0  0  0  0  0  0  0  0
   13.2680   12.1870   17.9760 C   0  0  0  0  0  0  0  0  0  0  0  0
   15.6020   12.1270   16.4070 C   0  0  0  0  0  0  0  0  0  0  0  0
   13.7530   16.1740   20.0570 C   0  0  0  0  0  0  0  0  0  0  0  0
   14.4820   15.1440   19.2210 C   0  0  0  0  0  0  0  0  0  0  0  0
    8.1390    8.9960   16.7620 C   0  0  0  0  0  0  0  0  0  0  0  0
    8.6850   10.1270   15.9230 C   0  0  0  0  0  0  0  0  0  0  0  0
    9.6600   12.0130   20.1250 C   0  0  0  0  0  0  0  0  0  0  0  0
   10.8360   12.2180   20.8130 C   0  0  0  0  0  0  0  0  0  0  0  0
   10.8650   11.8950   18.0800 C   0  0  0  0  0  0  0  0  0  0  0  0
   12.0480   12.2630   20.1420 C   0  0  0  0  0  0  0  0  0  0  0  0
   13.2710   12.5070   24.9400 C   0  0  0  0  0  0  0  0  0  0  0  0
   13.1100   11.3550   22.8810 C   0  0  0  0  0  0  0  0  0  0  0  0
   13.6720   11.0640   17.3850 C   0  0  0  0  0  0  0  0  0  0  0  0
   14.0380   13.3810   17.7830 C   0  0  0  0  0  0  0  0  0  0  0  0
   13.7820   15.0690   22.2680 C   0  0  0  0  0  0  0  0  0  0  0  0
   12.8960   15.5460   21.1390 C   0  0  0  0  0  0  0  0  0  0  0  0
   15.1910    9.7730   16.0050 C   0  0  0  0  0  0  0  0  0  0  0  0
   14.8030   11.0190   16.6170 N   0  0  0  0  0  0  0  0  0  0  0  0
    8.3730   11.6210   18.1590 N   0  0  0  0  0  0  0  0  0  0  0  0
   16.6280   12.1360   15.7470 O   0  0  0  0  0  0  0  0  0  0  0  0
    6.6460   11.6820   16.2620 O   0  0  0  0  0  0  0  0  0  0  0  0
    8.8830   12.7380   15.8410 O   0  0  0  0  0  0  0  0  0  0  0  0
   13.2800   12.4880   20.7900 O   0  0  0  0  0  0  0  0  0  0  0  0
   13.5160   14.5060   18.3970 O   0  0  0  0  0  0  0  0  0  0  0  0
   13.2620   12.5140   26.2810 F   0  0  0  0  0  0  0  0  0  0  0  0
   12.9100   10.2060   22.2260 F   0  0  0  0  0  0  0  0  0  0  0  0
    8.0810   11.7050   16.4670 S   0  0  0  0  0  0  0  0  0  0  0  0
   13.6696   14.6079   24.8300 H   0  0  0  0  0  0  0  0  0  0  0  0
   12.9248   10.3853   24.7983 H   0  0  0  0  0  0  0  0  0  0  0  0
   15.7137   14.3216   16.8844 H   0  0  0  0  0  0  0  0  0  0  0  0
   14.4957   16.8312   20.5329 H   0  0  0  0  0  0  0  0  0  0  0  0
   13.0852   16.7351   19.3867 H   0  0  0  0  0  0  0  0  0  0  0  0
   15.2426   15.6360   18.5970 H   0  0  0  0  0  0  0  0  0  0  0  0
   14.9900   14.4102   19.8641 H   0  0  0  0  0  0  0  0  0  0  0  0
    8.2569    9.2402   17.8280 H   0  0  0  0  0  0  0  0  0  0  0  0
    7.0724    8.8525   16.5345 H   0  0  0  0  0  0  0  0  0  0  0  0
    8.6900    8.0716   16.5345 H   0  0  0  0  0  0  0  0  0  0  0  0
    9.7828   10.1233   15.9920 H   0  0  0  0  0  0  0  0  0  0  0  0
    8.3527    9.9736   14.8857 H   0  0  0  0  0  0  0  0  0  0  0  0
    8.7072   11.9825   20.6738 H   0  0  0  0  0  0  0  0  0  0  0  0
   10.8128   12.3472   21.9051 H   0  0  0  0  0  0  0  0  0  0  0  0
   10.8826   11.7599   16.9885 H   0  0  0  0  0  0  0  0  0  0  0  0
   13.0795   10.1468   17.5182 H   0  0  0  0  0  0  0  0  0  0  0  0
   13.7139   15.8147   23.0738 H   0  0  0  0  0  0  0  0  0  0  0  0
   14.7734   14.9513   21.8062 H   0  0  0  0  0  0  0  0  0  0  0  0
   12.1834   16.2915   21.5216 H   0  0  0  0  0  0  0  0  0  0  0  0
   12.3428   14.6924   20.7203 H   0  0  0  0  0  0  0  0  0  0  0  0
   15.4206    9.0356   16.7883 H   0  0  0  0  0  0  0  0  0  0  0  0
   14.3667    9.3992   15.3798 H   0  0  0  0  0  0  0  0  0  0  0  0
   16.0818    9.9333   15.3798 H   0  0  0  0  0  0  0  0  0  0  0  0
    7.5812   11.3974   18.7786 H   0  0  0  0  0  0  0  0  0  0  0  0
    6.1874   11.6746   17.1393 H   0  0  0  0  0  0  0  0  0  0  0  0
    9.3127   13.2914   16.5404 H   0  0  0  0  0  0  0  0  0  0  0  0
  1  4  2  0
  1 18  1  0
  2 18  2  0
  2 19  1  0
  3  8  1  0
  3 16  1  0
  3 17  2  0
  4  6  1  0
  4 22  1  0
  5 14  1  0
  5 16  2  0
  5 26  1  0
  6 19  2  0
  6 30  1  0
  7  9  1  0
  7 21  2  0
  8 20  2  0
  8 21  1  0
  9 25  1  0
  9 27  2  0
 10 11  1  0
 10 23  1  0
 11 31  1  0
 12 13  1  0
 13 34  1  0
 14 15  2  0
 15 17  1  0
 17 30  1  0
 18 32  1  0
 19 33  1  0
 20 25  1  0
 21 31  1  0
 22 23  1  0
 24 25  1  0
 26 34  1  0
 28 34  1  0
 29 34  1  0
  1 35  1  0
  2 36  1  0
  7 37  1  0
 10 38  1  0
 10 39  1  0
 11 40  1  0
 11 41  1  0
 12 42  1  0
 12 43  1  0
 12 44  1  0
 13 45  1  0
 13 46  1  0
 14 47  1  0
 15 48  1  0
 16 49  1  0
 20 50  1  0
 22 51  1  0
 22 52  1  0
 23 53  1  0
 23 54  1  0
 24 55  1  0
 24 56  1  0
 24 57  1  0
 26 58  1  0
 28 59  1  0
 29 60  1  0
A    1
C4
A    2
C5
A    3
C6
A    4
C7
A    5
C8
A    6
C10
A    7
C13
A    8
C15
A    9
C17
A   10
C20
A   11
C21
A   12
C22
A   13
C24
A   14
C1
A   15
C2
A   16
C3
A   17
C9
A   18
C11
A   19
C12
A   20
C14
A   21
C16
A   22
C18
A   23
C19
A   24
C23
A   25
N25
A   26
N26
A   27
O27
A   28
O28
A   29
O29
A   30
O30
A   31
O31
A   32
F32
A   33
F33
A   34
S34
M  END
