5UEZ_89G_A_501
     RDKit          3D

 39 41  0  0  0  0  0  0  0  0999 V2000
   13.3430   12.4340   -7.2470 C   0  0  0  0  0  0  0  0  0  0  0  0
   17.3580   12.3150   -3.3740 C   0  0  0  0  0  0  0  0  0  0  0  0
   16.0130   12.5990   -1.4030 C   0  0  0  0  0  0  0  0  0  0  0  0
   13.2940    9.9820   -5.9760 C   0  0  0  0  0  0  0  0  0  0  0  0
   13.6970   12.3510   -5.9160 C   0  0  0  0  0  0  0  0  0  0  0  0
   14.9640   12.0020   -2.0720 C   0  0  0  0  0  0  0  0  0  0  0  0
   11.4850   12.6860   -0.8930 C   0  0  0  0  0  0  0  0  0  0  0  0
   12.6270   12.8060   -1.6080 C   0  0  0  0  0  0  0  0  0  0  0  0
   12.2900    9.4930    0.9620 C   0  0  0  0  0  0  0  0  0  0  0  0
   12.9510   11.3000   -7.9310 C   0  0  0  0  0  0  0  0  0  0  0  0
   17.2140   12.7670   -2.0750 C   0  0  0  0  0  0  0  0  0  0  0  0
   12.9130   10.0740   -7.2970 C   0  0  0  0  0  0  0  0  0  0  0  0
   16.3140   11.7000   -4.0370 C   0  0  0  0  0  0  0  0  0  0  0  0
   13.6890   11.1160   -5.2940 C   0  0  0  0  0  0  0  0  0  0  0  0
   15.1030   11.5590   -3.3740 C   0  0  0  0  0  0  0  0  0  0  0  0
   13.6810   11.8090   -1.3530 C   0  0  0  0  0  0  0  0  0  0  0  0
   11.3320   11.5290    0.0410 C   0  0  0  0  0  0  0  0  0  0  0  0
   11.7330   14.5120   -2.8750 C   0  0  0  0  0  0  0  0  0  0  0  0
   13.5680   10.7990   -0.5550 N   0  0  0  0  0  0  0  0  0  0  0  0
   12.3860   10.6510    0.0950 N   0  0  0  0  0  0  0  0  0  0  0  0
   10.2940   11.3900    0.6930 O   0  0  0  0  0  0  0  0  0  0  0  0
   14.0020   10.9420   -3.9550 O   0  0  0  0  0  0  0  0  0  0  0  0
   12.9280   13.8120   -2.5250 O   0  0  0  0  0  0  0  0  0  0  0  0
   13.3730   13.4045   -7.7639 H   0  0  0  0  0  0  0  0  0  0  0  0
   18.3212   12.4476   -3.8884 H   0  0  0  0  0  0  0  0  0  0  0  0
   15.8990   12.9336   -0.3614 H   0  0  0  0  0  0  0  0  0  0  0  0
   13.2835    9.0075   -5.4658 H   0  0  0  0  0  0  0  0  0  0  0  0
   13.9817   13.2548   -5.3574 H   0  0  0  0  0  0  0  0  0  0  0  0
   10.6806   13.4290   -0.9974 H   0  0  0  0  0  0  0  0  0  0  0  0
   12.3170    9.8182    2.0125 H   0  0  0  0  0  0  0  0  0  0  0  0
   11.3450    8.9653    0.7657 H   0  0  0  0  0  0  0  0  0  0  0  0
   13.1352    8.8169    0.7657 H   0  0  0  0  0  0  0  0  0  0  0  0
   12.6664   11.3742   -8.9909 H   0  0  0  0  0  0  0  0  0  0  0  0
   18.0573   13.2627   -1.5719 H   0  0  0  0  0  0  0  0  0  0  0  0
   12.5813    9.1780   -7.8421 H   0  0  0  0  0  0  0  0  0  0  0  0
   16.4394   11.3309   -5.0656 H   0  0  0  0  0  0  0  0  0  0  0  0
   11.2070   14.8201   -1.9594 H   0  0  0  0  0  0  0  0  0  0  0  0
   11.9898   15.4024   -3.4676 H   0  0  0  0  0  0  0  0  0  0  0  0
   11.0819   13.8525   -3.4676 H   0  0  0  0  0  0  0  0  0  0  0  0
 10 12  1  0
 10  1  2  0
 12  4  2  0
  1  5  1  0
  4 14  1  0
  5 14  2  0
 14 22  1  0
 13 15  1  0
 13  2  2  0
 22 15  1  0
 15  6  2  0
  2 11  1  0
 18 23  1  0
 23  8  1  0
 11  3  2  0
  6  3  1  0
  6 16  1  0
  8 16  1  0
  8  7  2  0
 16 19  2  0
  7 17  1  0
 19 20  1  0
 17 20  1  0
 17 21  2  0
 20  9  1  0
  1 24  1  0
  2 25  1  0
  3 26  1  0
  4 27  1  0
  5 28  1  0
  7 29  1  0
  9 30  1  0
  9 31  1  0
  9 32  1  0
 10 33  1  0
 11 34  1  0
 12 35  1  0
 13 36  1  0
 18 37  1  0
 18 38  1  0
 18 39  1  0
A    1
C4
A    2
C5
A    3
C6
A    4
C7
A    5
C8
A    6
C10
A    7
C13
A    8
C15
A    9
C17
A   10
C1
A   11
C2
A   12
C3
A   13
C9
A   14
C11
A   15
C12
A   16
C14
A   17
C16
A   18
C18
A   19
N19
A   20
N20
A   21
O21
A   22
O22
A   23
O23
M  END
