5UFO_87J_A_601
     RDKit          3D

 63 67  0  0  0  0  0  0  0  0999 V2000
    8.7420  -30.2060  -10.9780 C   0  0  0  0  0  0  0  0  0  0  0  0
   11.0290  -30.7300  -10.5720 C   0  0  0  0  0  0  0  0  0  0  0  0
   11.6080  -24.0370   -8.4380 C   0  0  0  0  0  0  0  0  0  0  0  0
   14.0440  -21.8840   -8.2710 C   0  0  0  0  0  0  0  0  0  0  0  0
   10.8090  -25.0180   -7.9090 C   0  0  0  0  0  0  0  0  0  0  0  0
    8.5610  -31.4440  -11.5530 C   0  0  0  0  0  0  0  0  0  0  0  0
   10.8600  -31.9670  -11.1430 C   0  0  0  0  0  0  0  0  0  0  0  0
   15.0770  -21.6260   -7.4030 C   0  0  0  0  0  0  0  0  0  0  0  0
   12.0340  -25.4140  -10.3240 C   0  0  0  0  0  0  0  0  0  0  0  0
   15.3990  -23.5140   -9.2920 C   0  0  0  0  0  0  0  0  0  0  0  0
   10.9910  -21.6160  -10.4320 C   0  0  0  0  0  0  0  0  0  0  0  0
   11.9160  -19.8780  -11.2260 C   0  0  0  0  0  0  0  0  0  0  0  0
   11.2280  -26.3940   -9.7870 C   0  0  0  0  0  0  0  0  0  0  0  0
    9.9770  -29.8490  -10.4870 C   0  0  0  0  0  0  0  0  0  0  0  0
   10.2090  -28.5670   -9.8680 C   0  0  0  0  0  0  0  0  0  0  0  0
   12.2240  -24.2290   -9.6490 C   0  0  0  0  0  0  0  0  0  0  0  0
   14.1980  -22.8460   -9.2400 C   0  0  0  0  0  0  0  0  0  0  0  0
   10.6130  -26.2020   -8.5710 C   0  0  0  0  0  0  0  0  0  0  0  0
    9.6230  -32.3090  -11.6270 C   0  0  0  0  0  0  0  0  0  0  0  0
   11.0120  -27.5970  -10.4240 C   0  0  0  0  0  0  0  0  0  0  0  0
   16.2430  -22.3450   -7.5310 C   0  0  0  0  0  0  0  0  0  0  0  0
   12.3290  -21.9310  -10.5280 C   0  0  0  0  0  0  0  0  0  0  0  0
    9.6400  -28.2720   -8.6510 C   0  0  0  0  0  0  0  0  0  0  0  0
   14.3010  -20.6020  -11.3380 C   0  0  0  0  0  0  0  0  0  0  0  0
    8.8560  -29.0270   -6.6610 C   0  0  0  0  0  0  0  0  0  0  0  0
    9.3570  -33.5380  -14.0930 C   0  0  0  0  0  0  0  0  0  0  0  0
   13.0910  -23.1470  -10.1950 C   0  0  0  0  0  0  0  0  0  0  0  0
   17.3650  -22.0680   -6.5900 C   0  0  0  0  0  0  0  0  0  0  0  0
   10.7410  -20.3410  -10.8670 N   0  0  0  0  0  0  0  0  0  0  0  0
   16.4200  -23.2850   -8.4620 N   0  0  0  0  0  0  0  0  0  0  0  0
    9.8270  -27.1190   -8.0100 N   0  0  0  0  0  0  0  0  0  0  0  0
   12.9000  -20.8010  -11.0400 N   0  0  0  0  0  0  0  0  0  0  0  0
   10.6060  -34.6600  -12.0860 O   0  0  0  0  0  0  0  0  0  0  0  0
    8.0880  -34.3810  -11.9650 O   0  0  0  0  0  0  0  0  0  0  0  0
   13.6660  -23.6020  -11.4080 O   0  0  0  0  0  0  0  0  0  0  0  0
    8.8200  -29.2230   -8.0700 O   0  0  0  0  0  0  0  0  0  0  0  0
   17.6190  -20.7380   -6.4500 F   0  0  0  0  0  0  0  0  0  0  0  0
   17.1180  -22.5330   -5.3360 F   0  0  0  0  0  0  0  0  0  0  0  0
   18.5400  -22.6320   -6.9790 F   0  0  0  0  0  0  0  0  0  0  0  0
    9.3990  -33.9080  -12.3620 S   0  0  0  0  0  0  0  0  0  0  0  0
   11.7660  -27.8890  -11.9440 Cl  0  0  0  0  0  0  0  0  0  0  0  0
    7.8992  -29.5022  -10.9111 H   0  0  0  0  0  0  0  0  0  0  0  0
   12.0150  -30.4412  -10.1790 H   0  0  0  0  0  0  0  0  0  0  0  0
   11.7554  -23.0944   -7.8905 H   0  0  0  0  0  0  0  0  0  0  0  0
   13.1003  -21.3245   -8.1909 H   0  0  0  0  0  0  0  0  0  0  0  0
   10.3180  -24.8521   -6.9387 H   0  0  0  0  0  0  0  0  0  0  0  0
    7.5768  -31.7358  -11.9482 H   0  0  0  0  0  0  0  0  0  0  0  0
   11.7020  -32.6716  -11.2112 H   0  0  0  0  0  0  0  0  0  0  0  0
   14.9739  -20.8595   -6.6208 H   0  0  0  0  0  0  0  0  0  0  0  0
   12.5266  -25.5786  -11.2937 H   0  0  0  0  0  0  0  0  0  0  0  0
   15.5267  -24.2853  -10.0658 H   0  0  0  0  0  0  0  0  0  0  0  0
   10.2196  -22.3027  -10.0533 H   0  0  0  0  0  0  0  0  0  0  0  0
   12.0850  -18.8681  -11.6279 H   0  0  0  0  0  0  0  0  0  0  0  0
   14.8678  -20.5215  -10.3987 H   0  0  0  0  0  0  0  0  0  0  0  0
   14.6767  -21.4558  -11.9210 H   0  0  0  0  0  0  0  0  0  0  0  0
   14.4241  -19.6774  -11.9210 H   0  0  0  0  0  0  0  0  0  0  0  0
    8.6798  -29.9865   -6.1527 H   0  0  0  0  0  0  0  0  0  0  0  0
    9.8414  -28.6338   -6.3706 H   0  0  0  0  0  0  0  0  0  0  0  0
    8.0747  -28.3093   -6.3706 H   0  0  0  0  0  0  0  0  0  0  0  0
    9.2339  -32.4540  -14.2334 H   0  0  0  0  0  0  0  0  0  0  0  0
   10.2979  -33.8638  -14.5605 H   0  0  0  0  0  0  0  0  0  0  0  0
    8.5131  -34.0664  -14.5605 H   0  0  0  0  0  0  0  0  0  0  0  0
   14.4263  -24.2036  -11.2076 H   0  0  0  0  0  0  0  0  0  0  0  0
  1  6  2  0
  1 14  1  0
  2  7  1  0
  2 14  2  0
  3  5  2  0
  3 16  1  0
  4  8  2  0
  4 17  1  0
  5 18  1  0
  6 19  1  0
  7 19  2  0
  8 21  1  0
  9 13  1  0
  9 16  2  0
 10 17  2  0
 10 30  1  0
 11 22  2  0
 11 29  1  0
 12 29  2  0
 12 32  1  0
 13 18  2  0
 13 20  1  0
 14 15  1  0
 15 20  2  0
 15 23  1  0
 16 27  1  0
 17 27  1  0
 18 31  1  0
 19 40  1  0
 20 41  1  0
 21 28  1  0
 21 30  2  0
 22 27  1  0
 22 32  1  0
 23 31  2  0
 23 36  1  0
 24 32  1  0
 25 36  1  0
 26 40  1  0
 27 35  1  0
 28 37  1  0
 28 38  1  0
 28 39  1  0
 33 40  2  0
 34 40  2  0
  1 42  1  0
  2 43  1  0
  3 44  1  0
  4 45  1  0
  5 46  1  0
  6 47  1  0
  7 48  1  0
  8 49  1  0
  9 50  1  0
 10 51  1  0
 11 52  1  0
 12 53  1  0
 24 54  1  0
 24 55  1  0
 24 56  1  0
 25 57  1  0
 25 58  1  0
 25 59  1  0
 26 60  1  0
 26 61  1  0
 26 62  1  0
 35 63  1  0
A    1
C07
A    2
C15
A    3
C21
A    4
C39
A    5
C20
A    6
C08
A    7
C14
A    8
C38
A    9
C41
A   10
C31
A   11
C29
A   12
C27
A   13
C18
A   14
C06
A   15
C05
A   16
C22
A   17
C30
A   18
C19
A   19
C09
A   20
C16
A   21
C33
A   22
C24
A   23
C03
A   24
C26
A   25
C01
A   26
C11
A   27
C23
A   28
C34
A   29
N28
A   30
N32
A   31
N04
A   32
N25
A   33
O12
A   34
O13
A   35
O40
A   36
O02
A   37
F35
A   38
F36
A   39
F37
A   40
S10
A   41
CL17
M  END
