5UFR_88J_A_601
     RDKit          3D

 58 62  0  0  0  0  0  0  0  0999 V2000
   18.0710   14.1530  -22.0340 C   0  0  0  0  0  0  0  0  0  0  0  0
   17.1240   15.1350  -22.2130 C   0  0  0  0  0  0  0  0  0  0  0  0
   18.6890   14.0110  -20.8150 C   0  0  0  0  0  0  0  0  0  0  0  0
   16.7930   15.9830  -21.1810 C   0  0  0  0  0  0  0  0  0  0  0  0
   18.3590   14.8590  -19.7850 C   0  0  0  0  0  0  0  0  0  0  0  0
   16.8850   20.6730  -15.8950 C   0  0  0  0  0  0  0  0  0  0  0  0
   16.6010   19.3330  -15.7600 C   0  0  0  0  0  0  0  0  0  0  0  0
   20.0790   22.6000  -16.5500 C   0  0  0  0  0  0  0  0  0  0  0  0
   18.5060   23.5680  -15.0730 C   0  0  0  0  0  0  0  0  0  0  0  0
   17.5220   20.2950  -18.1410 C   0  0  0  0  0  0  0  0  0  0  0  0
   21.0610   22.9050  -15.6360 C   0  0  0  0  0  0  0  0  0  0  0  0
   19.5560   23.8340  -14.2200 C   0  0  0  0  0  0  0  0  0  0  0  0
   15.2150   23.3800  -16.8120 C   0  0  0  0  0  0  0  0  0  0  0  0
   15.4380   25.4530  -17.1920 C   0  0  0  0  0  0  0  0  0  0  0  0
   17.2340   18.9550  -17.9940 C   0  0  0  0  0  0  0  0  0  0  0  0
   17.4100   15.8390  -19.9610 C   0  0  0  0  0  0  0  0  0  0  0  0
   17.1230   16.7220  -18.8650 C   0  0  0  0  0  0  0  0  0  0  0  0
   17.3450   21.1680  -17.0910 C   0  0  0  0  0  0  0  0  0  0  0  0
   18.7750   22.9400  -16.2610 C   0  0  0  0  0  0  0  0  0  0  0  0
   16.7700   18.4510  -16.8020 C   0  0  0  0  0  0  0  0  0  0  0  0
   17.3990   18.0580  -19.0180 C   0  0  0  0  0  0  0  0  0  0  0  0
   16.5440   23.5470  -17.1260 C   0  0  0  0  0  0  0  0  0  0  0  0
   16.6490   16.2870  -17.6490 C   0  0  0  0  0  0  0  0  0  0  0  0
   17.8680   25.5920  -17.7540 C   0  0  0  0  0  0  0  0  0  0  0  0
   15.4130   14.3270  -18.3320 C   0  0  0  0  0  0  0  0  0  0  0  0
   16.2490   14.6280  -16.0370 C   0  0  0  0  0  0  0  0  0  0  0  0
   17.6770   22.6180  -17.2270 C   0  0  0  0  0  0  0  0  0  0  0  0
   20.8270   23.5180  -14.4750 N   0  0  0  0  0  0  0  0  0  0  0  0
   14.5300   24.5670  -16.8530 N   0  0  0  0  0  0  0  0  0  0  0  0
   16.4730   17.1550  -16.6460 N   0  0  0  0  0  0  0  0  0  0  0  0
   16.6650   24.8840  -17.3630 N   0  0  0  0  0  0  0  0  0  0  0  0
   16.3860   14.9190  -17.4500 N   0  0  0  0  0  0  0  0  0  0  0  0
   18.2380   22.8220  -18.5090 O   0  0  0  0  0  0  0  0  0  0  0  0
   17.9680   18.6130  -20.5450 Cl  0  0  0  0  0  0  0  0  0  0  0  0
   18.3330   13.4825  -22.8657 H   0  0  0  0  0  0  0  0  0  0  0  0
   16.6276   15.2431  -23.1887 H   0  0  0  0  0  0  0  0  0  0  0  0
   19.4427   13.2240  -20.6645 H   0  0  0  0  0  0  0  0  0  0  0  0
   16.0399   16.7706  -21.3312 H   0  0  0  0  0  0  0  0  0  0  0  0
   18.8585   14.7530  -18.8107 H   0  0  0  0  0  0  0  0  0  0  0  0
   16.7429   21.3511  -15.0406 H   0  0  0  0  0  0  0  0  0  0  0  0
   16.2296   18.9581  -14.7948 H   0  0  0  0  0  0  0  0  0  0  0  0
   20.3299   22.0941  -17.4940 H   0  0  0  0  0  0  0  0  0  0  0  0
   17.4775   23.8529  -14.8065 H   0  0  0  0  0  0  0  0  0  0  0  0
   17.8963   20.6700  -19.1050 H   0  0  0  0  0  0  0  0  0  0  0  0
   22.0979   22.6275  -15.8765 H   0  0  0  0  0  0  0  0  0  0  0  0
   19.3317   24.3388  -13.2688 H   0  0  0  0  0  0  0  0  0  0  0  0
   14.7577   22.4121  -16.5589 H   0  0  0  0  0  0  0  0  0  0  0  0
   15.2331   26.5259  -17.3224 H   0  0  0  0  0  0  0  0  0  0  0  0
   18.4134   25.9130  -16.8542 H   0  0  0  0  0  0  0  0  0  0  0  0
   18.5073   24.9261  -18.3522 H   0  0  0  0  0  0  0  0  0  0  0  0
   17.5962   26.4742  -18.3522 H   0  0  0  0  0  0  0  0  0  0  0  0
   14.6229   13.8463  -17.7365 H   0  0  0  0  0  0  0  0  0  0  0  0
   14.9697   15.1086  -18.9665 H   0  0  0  0  0  0  0  0  0  0  0  0
   15.9034   13.5741  -18.9665 H   0  0  0  0  0  0  0  0  0  0  0  0
   16.6451   15.4693  -15.4493 H   0  0  0  0  0  0  0  0  0  0  0  0
   15.1864   14.4795  -15.7946 H   0  0  0  0  0  0  0  0  0  0  0  0
   16.8116   13.7144  -15.7946 H   0  0  0  0  0  0  0  0  0  0  0  0
   19.1641   23.1588  -18.4142 H   0  0  0  0  0  0  0  0  0  0  0  0
  2  1  2  0
  2  4  1  0
  1  3  1  0
  4 16  2  0
  3  5  2  0
 34 21  1  0
 16  5  1  0
 16 17  1  0
 21 17  2  0
 21 15  1  0
 17 23  1  0
 33 27  1  0
 25 32  1  0
 10 15  2  0
 10 18  1  0
 15 20  1  0
 24 31  1  0
 23 32  1  0
 23 30  2  0
 32 26  1  0
 31 14  1  0
 31 22  1  0
 27 22  1  0
 27 18  1  0
 27 19  1  0
 14 29  2  0
 22 13  2  0
 18  6  2  0
 29 13  1  0
 20 30  1  0
 20  7  2  0
  8 19  2  0
  8 11  1  0
 19  9  1  0
  6  7  1  0
 11 28  2  0
  9 12  2  0
 28 12  1  0
  1 35  1  0
  2 36  1  0
  3 37  1  0
  4 38  1  0
  5 39  1  0
  6 40  1  0
  7 41  1  0
  8 42  1  0
  9 43  1  0
 10 44  1  0
 11 45  1  0
 12 46  1  0
 13 47  1  0
 14 48  1  0
 24 49  1  0
 24 50  1  0
 24 51  1  0
 25 52  1  0
 25 53  1  0
 25 54  1  0
 26 55  1  0
 26 56  1  0
 26 57  1  0
 33 58  1  0
A    1
C18
A    2
C17
A    3
C19
A    4
C16
A    5
C20
A    6
C8
A    7
C7
A    8
C30
A    9
C34
A   10
C10
A   11
C31
A   12
C33
A   13
C24
A   14
C26
A   15
C11
A   16
C15
A   17
C14
A   18
C9
A   19
C29
A   20
C6
A   21
C12
A   22
C23
A   23
C4
A   24
C28
A   25
C1
A   26
C3
A   27
C21
A   28
N32
A   29
N25
A   30
N5
A   31
N27
A   32
N2
A   33
O22
A   34
CL13
M  END
