5UG2_86J_A_302
     RDKit          3D

 20 21  0  0  0  0  0  0  0  0999 V2000
   19.9790  -70.8710  100.9450 C   0  0  0  0  0  0  0  0  0  0  0  0
   22.1680  -69.8620  101.8350 C   0  0  0  0  0  0  0  0  0  0  0  0
   20.7690  -70.3440  101.9430 C   0  0  0  0  0  0  0  0  0  0  0  0
   20.0670  -70.3210  103.1200 N   0  0  0  0  0  0  0  0  0  0  0  0
   18.8530  -70.8150  102.8620 C   0  0  0  0  0  0  0  0  0  0  0  0
   17.7380  -71.0000  103.7030 C   0  0  0  0  0  0  0  0  0  0  0  0
   16.5980  -71.5310  103.2120 C   0  0  0  0  0  0  0  0  0  0  0  0
   16.5570  -71.8820  101.8420 C   0  0  0  0  0  0  0  0  0  0  0  0
   15.4450  -72.3970  101.3740 F   0  0  0  0  0  0  0  0  0  0  0  0
   17.5900  -71.7240  100.9920 C   0  0  0  0  0  0  0  0  0  0  0  0
   18.7490  -71.1740  101.5050 N   0  0  0  0  0  0  0  0  0  0  0  0
   20.2040  -71.1240   99.6420 N   0  0  0  0  0  0  0  0  0  0  0  0
   22.5851  -69.7183  102.8426 H   0  0  0  0  0  0  0  0  0  0  0  0
   22.7706  -70.6043  101.2911 H   0  0  0  0  0  0  0  0  0  0  0  0
   22.1855  -68.9060  101.2911 H   0  0  0  0  0  0  0  0  0  0  0  0
   17.7964  -70.7110  104.7627 H   0  0  0  0  0  0  0  0  0  0  0  0
   15.7233  -71.6868  103.8606 H   0  0  0  0  0  0  0  0  0  0  0  0
   17.5141  -72.0200   99.9353 H   0  0  0  0  0  0  0  0  0  0  0  0
   20.8638  -71.8659   99.3679 H   0  0  0  0  0  0  0  0  0  0  0  0
   19.7163  -70.5757   98.9192 H   0  0  0  0  0  0  0  0  0  0  0  0
 12  1  1  0
  1 11  1  0
  1  3  2  0
 10 11  1  0
 10  8  2  0
  9  8  1  0
 11  5  1  0
  2  3  1  0
  8  7  1  0
  3  4  1  0
  5  4  2  0
  5  6  1  0
  7  6  2  0
  2 13  1  0
  2 14  1  0
  2 15  1  0
  6 16  1  0
  7 17  1  0
 10 18  1  0
 12 19  1  0
 12 20  1  0
A    1
C11
A    2
C01
A    3
C02
A    4
N03
A    5
C04
A    6
C05
A    7
C06
A    8
C07
A    9
F08
A   10
C09
A   11
N10
A   12
N12
M  END
