5UGS_XT5_A_302
     RDKit          3D

 43 46  0  0  0  0  0  0  0  0999 V2000
   27.9210  -24.9410  -56.0430 C   0  0  0  0  0  0  0  0  0  0  0  0
   28.2050  -26.1860  -55.4310 C   0  0  0  0  0  0  0  0  0  0  0  0
   27.7670  -26.1570  -56.7760 C   0  0  0  0  0  0  0  0  0  0  0  0
   28.8230  -26.5130  -57.7790 C   0  0  0  0  0  0  0  0  0  0  0  0
   29.4060  -27.6670  -57.9750 C   0  0  0  0  0  0  0  0  0  0  0  0
   29.3380  -25.6660  -58.6120 N   0  0  0  0  0  0  0  0  0  0  0  0
   30.1150  -26.2310  -59.2300 N   0  0  0  0  0  0  0  0  0  0  0  0
   30.2470  -27.4160  -58.9640 N   0  0  0  0  0  0  0  0  0  0  0  0
   31.2660  -28.2130  -59.7030 C   0  0  0  0  0  0  0  0  0  0  0  0
   30.6260  -28.9290  -60.7370 C   0  0  0  0  0  0  0  0  0  0  0  0
   30.1690  -30.2410  -60.5280 C   0  0  0  0  0  0  0  0  0  0  0  0
   29.5320  -30.9260  -61.5540 C   0  0  0  0  0  0  0  0  0  0  0  0
   29.0400  -32.1750  -61.3860 O   0  0  0  0  0  0  0  0  0  0  0  0
   30.4400  -28.3530  -61.9940 C   0  0  0  0  0  0  0  0  0  0  0  0
   29.8090  -29.0360  -63.0220 C   0  0  0  0  0  0  0  0  0  0  0  0
   29.3470  -30.3160  -62.7910 C   0  0  0  0  0  0  0  0  0  0  0  0
   28.7020  -31.0100  -63.7580 O   0  0  0  0  0  0  0  0  0  0  0  0
   27.3100  -31.0060  -63.7160 C   0  0  0  0  0  0  0  0  0  0  0  0
   26.5620  -30.4460  -62.6840 C   0  0  0  0  0  0  0  0  0  0  0  0
   25.1800  -30.4900  -62.7040 C   0  0  0  0  0  0  0  0  0  0  0  0
   24.4940  -31.1030  -63.7480 C   0  0  0  0  0  0  0  0  0  0  0  0
   25.2220  -31.6860  -64.7800 C   0  0  0  0  0  0  0  0  0  0  0  0
   26.6260  -31.6530  -64.7760 C   0  0  0  0  0  0  0  0  0  0  0  0
   27.3070  -32.2290  -65.8650 C   0  0  0  0  0  0  0  0  0  0  0  0
   27.0345  -24.3661  -55.7370 H   0  0  0  0  0  0  0  0  0  0  0  0
   28.4748  -24.0030  -56.1961 H   0  0  0  0  0  0  0  0  0  0  0  0
   29.2452  -26.4583  -55.1988 H   0  0  0  0  0  0  0  0  0  0  0  0
   27.8653  -26.6948  -54.5168 H   0  0  0  0  0  0  0  0  0  0  0  0
   26.9430  -26.5930  -57.3599 H   0  0  0  0  0  0  0  0  0  0  0  0
   29.2376  -28.6164  -57.4455 H   0  0  0  0  0  0  0  0  0  0  0  0
   32.0208  -27.5386  -60.1336 H   0  0  0  0  0  0  0  0  0  0  0  0
   31.7603  -28.9147  -59.0150 H   0  0  0  0  0  0  0  0  0  0  0  0
   30.3159  -30.7255  -59.5515 H   0  0  0  0  0  0  0  0  0  0  0  0
   28.8990  -32.5329  -60.4738 H   0  0  0  0  0  0  0  0  0  0  0  0
   30.8035  -27.3305  -62.1739 H   0  0  0  0  0  0  0  0  0  0  0  0
   29.6784  -28.5649  -64.0074 H   0  0  0  0  0  0  0  0  0  0  0  0
   27.0773  -29.9620  -61.8413 H   0  0  0  0  0  0  0  0  0  0  0  0
   24.6129  -30.0323  -61.8800 H   0  0  0  0  0  0  0  0  0  0  0  0
   23.3943  -31.1262  -63.7570 H   0  0  0  0  0  0  0  0  0  0  0  0
   24.6920  -32.1785  -65.6086 H   0  0  0  0  0  0  0  0  0  0  0  0
   28.0970  -32.8972  -65.4915 H   0  0  0  0  0  0  0  0  0  0  0  0
   26.5981  -32.8057  -66.4772 H   0  0  0  0  0  0  0  0  0  0  0  0
   27.7581  -31.4342  -66.4772 H   0  0  0  0  0  0  0  0  0  0  0  0
 21 20  1  0
 21 22  2  0
 20 19  2  0
 22 23  1  0
  1  2  1  0
  1  3  1  0
 19 18  1  0
  2  3  1  0
  3  4  1  0
 23 18  2  0
 23 24  1  0
 18 17  1  0
  4  5  2  0
  4  6  1  0
  5  8  1  0
 13 12  1  0
 17 16  1  0
  6  7  2  0
 12 16  1  0
 12 11  2  0
 16 15  2  0
 11 10  1  0
 15 14  1  0
  8  7  1  0
  8  9  1  0
 10 14  2  0
 10  9  1  0
  1 25  1  0
  1 26  1  0
  2 27  1  0
  2 28  1  0
  3 29  1  0
  5 30  1  0
  9 31  1  0
  9 32  1  0
 11 33  1  0
 13 34  1  0
 14 35  1  0
 15 36  1  0
 19 37  1  0
 20 38  1  0
 21 39  1  0
 22 40  1  0
 24 41  1  0
 24 42  1  0
 24 43  1  0
A    1
CAK
A    2
CAL
A    3
CAW
A    4
CAT
A    5
CAJ
A    6
NAN
A    7
NAO
A    8
NAX
A    9
CAM
A   10
CAR
A   11
CAI
A   12
CAS
A   13
OAB
A   14
CAG
A   15
CAH
A   16
CAV
A   17
OAP
A   18
CAU
A   19
CAF
A   20
CAD
A   21
CAC
A   22
CAE
A   23
CAQ
A   24
CAA
M  END
