5UGT_XTW_A_302
     RDKit          3D

 40 43  0  0  0  0  0  0  0  0999 V2000
  -28.9320    1.5180  -40.3990 Cl  0  0  0  0  0  0  0  0  0  0  0  0
  -29.2330    2.4740  -41.9270 C   0  0  0  0  0  0  0  0  0  0  0  0
  -30.1680    2.0840  -42.8440 C   0  0  0  0  0  0  0  0  0  0  0  0
  -30.3680    2.8370  -43.9980 C   0  0  0  0  0  0  0  0  0  0  0  0
  -29.6180    3.9710  -44.2400 C   0  0  0  0  0  0  0  0  0  0  0  0
  -28.6750    4.3810  -43.3170 C   0  0  0  0  0  0  0  0  0  0  0  0
  -28.5010    3.6280  -42.1800 C   0  0  0  0  0  0  0  0  0  0  0  0
  -27.6260    3.9040  -41.1910 O   0  0  0  0  0  0  0  0  0  0  0  0
  -26.9780    5.0600  -41.0090 C   0  0  0  0  0  0  0  0  0  0  0  0
  -27.6930    6.2180  -40.7420 C   0  0  0  0  0  0  0  0  0  0  0  0
  -27.0150    7.3940  -40.5030 C   0  0  0  0  0  0  0  0  0  0  0  0
  -29.0360    6.1490  -40.7500 O   0  0  0  0  0  0  0  0  0  0  0  0
  -25.6060    5.0320  -41.0050 C   0  0  0  0  0  0  0  0  0  0  0  0
  -24.9260    6.1950  -40.7800 C   0  0  0  0  0  0  0  0  0  0  0  0
  -25.6180    7.3780  -40.5310 C   0  0  0  0  0  0  0  0  0  0  0  0
  -24.8810    8.5260  -40.3240 C   0  0  0  0  0  0  0  0  0  0  0  0
  -24.2860    8.9110  -41.6650 N   0  0  0  0  0  0  0  0  0  0  0  0
  -24.9030    9.2170  -42.8290 C   0  0  0  0  0  0  0  0  0  0  0  0
  -23.0710    8.9690  -41.8120 N   0  0  0  0  0  0  0  0  0  0  0  0
  -22.8000    9.2920  -43.0210 N   0  0  0  0  0  0  0  0  0  0  0  0
  -23.9250    9.4560  -43.6730 C   0  0  0  0  0  0  0  0  0  0  0  0
  -23.9580    9.8960  -45.0970 C   0  0  0  0  0  0  0  0  0  0  0  0
  -23.6610   11.3840  -45.1890 C   0  0  0  0  0  0  0  0  0  0  0  0
  -24.9860   10.8850  -45.6500 C   0  0  0  0  0  0  0  0  0  0  0  0
  -30.7627    1.1751  -42.6705 H   0  0  0  0  0  0  0  0  0  0  0  0
  -31.1321    2.5250  -44.7252 H   0  0  0  0  0  0  0  0  0  0  0  0
  -29.7709    4.5463  -45.1650 H   0  0  0  0  0  0  0  0  0  0  0  0
  -28.0775    5.2886  -43.4879 H   0  0  0  0  0  0  0  0  0  0  0  0
  -27.5620    8.3253  -40.2946 H   0  0  0  0  0  0  0  0  0  0  0  0
  -29.5354    6.1233  -39.8956 H   0  0  0  0  0  0  0  0  0  0  0  0
  -25.0641    4.0908  -41.1797 H   0  0  0  0  0  0  0  0  0  0  0  0
  -23.8261    6.1974  -40.7955 H   0  0  0  0  0  0  0  0  0  0  0  0
  -24.0799    8.3356  -39.5946 H   0  0  0  0  0  0  0  0  0  0  0  0
  -25.5118    9.3340  -39.9249 H   0  0  0  0  0  0  0  0  0  0  0  0
  -25.9846    9.2569  -43.0256 H   0  0  0  0  0  0  0  0  0  0  0  0
  -23.6255    8.9227  -45.4872 H   0  0  0  0  0  0  0  0  0  0  0  0
  -22.9291   11.7512  -45.9235 H   0  0  0  0  0  0  0  0  0  0  0  0
  -23.3325   12.1507  -44.4718 H   0  0  0  0  0  0  0  0  0  0  0  0
  -25.8916   11.1167  -45.0702 H   0  0  0  0  0  0  0  0  0  0  0  0
  -25.5617   10.9635  -46.5840 H   0  0  0  0  0  0  0  0  0  0  0  0
 24 23  1  0
 24 22  1  0
 23 22  1  0
 22 21  1  0
  5  4  2  0
  5  6  1  0
  4  3  1  0
 21 20  1  0
 21 18  2  0
  6  7  2  0
 20 19  2  0
  3  2  2  0
 18 17  1  0
  7  2  1  0
  7  8  1  0
  2  1  1  0
 19 17  1  0
 17 16  1  0
  8  9  1  0
  9 13  1  0
  9 10  2  0
 13 14  2  0
 14 15  1  0
 12 10  1  0
 10 11  1  0
 15 11  2  0
 15 16  1  0
  3 25  1  0
  4 26  1  0
  5 27  1  0
  6 28  1  0
 11 29  1  0
 12 30  1  0
 13 31  1  0
 14 32  1  0
 16 33  1  0
 16 34  1  0
 18 35  1  0
 22 36  1  0
 23 37  1  0
 23 38  1  0
 24 39  1  0
 24 40  1  0
A    1
CL
A    2
CAS
A    3
CAE
A    4
CAC
A    5
CAD
A    6
CAF
A    7
CAV
A    8
OAP
A    9
CAU
A   10
CAQ
A   11
CAI
A   12
OAA
A   13
CAH
A   14
CAG
A   15
CAR
A   16
CAM
A   17
NAX
A   18
CAJ
A   19
NAO
A   20
NAN
A   21
CAT
A   22
CAW
A   23
CAK
A   24
CAL
M  END
