5UHL_8BJ_A_501
     RDKit          3D

 32 33  0  0  0  0  0  0  0  0999 V2000
   14.1270   44.4210  -22.0270 C   0  0  0  0  0  0  0  0  0  0  0  0
   13.9780   45.5280  -23.0690 C   0  0  0  0  0  0  0  0  0  0  0  0
   15.2380   46.3720  -23.1240 C   0  0  0  0  0  0  0  0  0  0  0  0
   16.4470   45.5320  -23.5260 C   0  0  0  0  0  0  0  0  0  0  0  0
   18.1030   45.9270  -21.9720 C   0  0  0  0  0  0  0  0  0  0  0  0
   12.8880   46.3700  -22.7140 O   0  0  0  0  0  0  0  0  0  0  0  0
   15.0690   47.3780  -24.1120 O   0  0  0  0  0  0  0  0  0  0  0  0
   19.6300   46.0060  -20.0830 C   0  0  0  0  0  0  0  0  0  0  0  0
   19.8900   47.0090  -19.0740 C   0  0  0  0  0  0  0  0  0  0  0  0
   16.4690   44.1710  -22.8010 C   0  0  0  0  0  0  0  0  0  0  0  0
   15.2670   43.5830  -22.2990 O   0  0  0  0  0  0  0  0  0  0  0  0
   12.9290   43.4910  -21.9760 C   0  0  0  0  0  0  0  0  0  0  0  0
   12.6410   42.8840  -23.2350 O   0  0  0  0  0  0  0  0  0  0  0  0
   17.5070   44.3600  -21.3450 S   0  0  0  0  0  0  0  0  0  0  0  0
   17.5650   46.3630  -23.0480 N   0  0  0  0  0  0  0  0  0  0  0  0
   19.0610   46.5740  -21.3010 N   0  0  0  0  0  0  0  0  0  0  0  0
   14.2362   44.9566  -21.0724 H   0  0  0  0  0  0  0  0  0  0  0  0
   13.8010   45.0639  -24.0505 H   0  0  0  0  0  0  0  0  0  0  0  0
   15.4078   46.8026  -22.1261 H   0  0  0  0  0  0  0  0  0  0  0  0
   16.4661   45.2963  -24.6003 H   0  0  0  0  0  0  0  0  0  0  0  0
   12.8195   46.4229  -21.7278 H   0  0  0  0  0  0  0  0  0  0  0  0
   14.9221   48.2522  -23.6711 H   0  0  0  0  0  0  0  0  0  0  0  0
   18.9235   45.2687  -19.6739 H   0  0  0  0  0  0  0  0  0  0  0  0
   20.5910   45.5410  -20.3479 H   0  0  0  0  0  0  0  0  0  0  0  0
   19.7744   46.5629  -18.0752 H   0  0  0  0  0  0  0  0  0  0  0  0
   20.9161   47.3881  -19.1897 H   0  0  0  0  0  0  0  0  0  0  0  0
   19.1773   47.8389  -19.1897 H   0  0  0  0  0  0  0  0  0  0  0  0
   16.7938   43.4979  -23.6081 H   0  0  0  0  0  0  0  0  0  0  0  0
   12.0496   44.0692  -21.6562 H   0  0  0  0  0  0  0  0  0  0  0  0
   13.1688   42.6837  -21.2684 H   0  0  0  0  0  0  0  0  0  0  0  0
   12.2214   41.9997  -23.0867 H   0  0  0  0  0  0  0  0  0  0  0  0
   17.8834   47.2138  -23.5334 H   0  0  0  0  0  0  0  0  0  0  0  0
  7  3  1  0
  4  3  1  0
  4 15  1  0
  4 10  1  0
 13 12  1  0
  3  2  1  0
  2  6  1  0
  2  1  1  0
 15  5  1  0
 10 11  1  0
 10 14  1  0
 11  1  1  0
  1 12  1  0
  5 14  1  0
  5 16  2  0
 16  8  1  0
  8  9  1  0
  1 17  1  0
  2 18  1  0
  3 19  1  0
  4 20  1  0
  6 21  1  0
  7 22  1  0
  8 23  1  0
  8 24  1  0
  9 25  1  0
  9 26  1  0
  9 27  1  0
 10 28  1  0
 12 29  1  0
 12 30  1  0
 13 31  1  0
 15 32  1  0
A    1
C1
A    2
C2
A    3
C3
A    4
C4
A    5
C5
A    6
O1
A    7
O2
A    8
C6
A    9
C7
A   10
C8
A   11
O3
A   12
C
A   13
O
A   14
S
A   15
N
A   16
N1
M  END
