5UIH_8CV_A_201
     RDKit          3D

 30 30  0  0  0  0  0  0  0  0999 V2000
    0.0480    6.8000  -26.5000 C   0  0  0  0  0  0  0  0  0  0  0  0
    1.2350    7.6820  -26.1700 C   0  0  0  0  0  0  0  0  0  0  0  0
   -1.0150    7.2860  -27.2500 C   0  0  0  0  0  0  0  0  0  0  0  0
   -0.0040    5.4850  -26.0400 C   0  0  0  0  0  0  0  0  0  0  0  0
    0.9050    8.5310  -24.9450 C   0  0  0  0  0  0  0  0  0  0  0  0
   -2.1030    6.4710  -27.5380 C   0  0  0  0  0  0  0  0  0  0  0  0
   -1.0890    4.6700  -26.3310 C   0  0  0  0  0  0  0  0  0  0  0  0
    2.0490    9.3080  -24.4240 N   0  0  0  0  0  0  0  0  0  0  0  0
   -2.1430    5.1630  -27.0830 C   0  0  0  0  0  0  0  0  0  0  0  0
    2.3370    9.5830  -23.1500 C   0  0  0  0  0  0  0  0  0  0  0  0
    1.5340    9.4280  -22.1020 N   0  0  0  0  0  0  0  0  0  0  0  0
    3.5760   10.0340  -22.8910 N   0  0  0  0  0  0  0  0  0  0  0  0
    0.2310    9.6040  -22.0360 C   0  0  0  0  0  0  0  0  0  0  0  0
   -0.4890   10.3180  -22.9110 N   0  0  0  0  0  0  0  0  0  0  0  0
   -0.4310    9.0320  -21.0290 N   0  0  0  0  0  0  0  0  0  0  0  0
    2.1121    7.0535  -25.9565 H   0  0  0  0  0  0  0  0  0  0  0  0
    1.4569    8.3377  -27.0249 H   0  0  0  0  0  0  0  0  0  0  0  0
   -0.9956    8.3223  -27.6183 H   0  0  0  0  0  0  0  0  0  0  0  0
    0.8266    5.0878  -25.4380 H   0  0  0  0  0  0  0  0  0  0  0  0
    0.1048    9.2348  -25.2178 H   0  0  0  0  0  0  0  0  0  0  0  0
    0.6048    7.8349  -24.1479 H   0  0  0  0  0  0  0  0  0  0  0  0
   -2.9395    6.8676  -28.1322 H   0  0  0  0  0  0  0  0  0  0  0  0
   -1.1121    3.6330  -25.9647 H   0  0  0  0  0  0  0  0  0  0  0  0
    2.7017    9.6818  -25.1276 H   0  0  0  0  0  0  0  0  0  0  0  0
   -3.0049    4.5209  -27.3170 H   0  0  0  0  0  0  0  0  0  0  0  0
    1.9908    9.1316  -21.2277 H   0  0  0  0  0  0  0  0  0  0  0  0
    3.8498   10.2611  -21.9244 H   0  0  0  0  0  0  0  0  0  0  0  0
   -1.5077   10.4074  -22.7881 H   0  0  0  0  0  0  0  0  0  0  0  0
   -0.1771    9.2514  -20.0552 H   0  0  0  0  0  0  0  0  0  0  0  0
   -1.1961    8.3709  -21.2253 H   0  0  0  0  0  0  0  0  0  0  0  0
  6  3  1  0
  6  9  2  0
  3  1  2  0
  9  7  1  0
  1  2  1  0
  1  4  1  0
  7  4  2  0
  2  5  1  0
  5  8  1  0
  8 10  1  0
 10 12  2  3
 10 11  1  0
 14 13  2  3
 11 13  1  0
 13 15  1  0
  2 16  1  0
  2 17  1  0
  3 18  1  0
  4 19  1  0
  5 20  1  0
  5 21  1  0
  6 22  1  0
  7 23  1  0
  8 24  1  0
  9 25  1  0
 11 26  1  0
 12 27  1  0
 14 28  1  0
 15 29  1  0
 15 30  1  0
A    1
C1
A    2
C2
A    3
C3
A    4
C4
A    5
C5
A    6
C6
A    7
C7
A    8
N1
A    9
C8
A   10
C9
A   11
N2
A   12
N3
A   13
C10
A   14
N4
A   15
N5
M  END
