2EUN_LG3_A_296
     RDKit          3D

 14 14  0  0  0  0  0  0  0  0999 V2000
   -7.7430   71.0890   15.0230 C   0  0  0  0  0  0  0  0  0  0  0  0
   -7.4790   69.9350   15.6700 N   0  0  0  0  0  0  0  0  0  0  0  0
   -7.9240   69.8370   16.9530 C   0  0  0  0  0  0  0  0  0  0  0  0
   -8.6200   70.9090   17.5590 C   0  0  0  0  0  0  0  0  0  0  0  0
   -8.8670   72.0590   16.8640 C   0  0  0  0  0  0  0  0  0  0  0  0
   -8.3870   72.1540   15.5880 N   0  0  0  0  0  0  0  0  0  0  0  0
   -7.3430   71.2350   13.7490 N   0  0  0  0  0  0  0  0  0  0  0  0
   -7.7040   68.6990   17.7000 N   0  0  0  0  0  0  0  0  0  0  0  0
   -8.9655   70.8159   18.5992 H   0  0  0  0  0  0  0  0  0  0  0  0
   -9.4354   72.8841   17.3181 H   0  0  0  0  0  0  0  0  0  0  0  0
   -6.3949   71.5810   13.5433 H   0  0  0  0  0  0  0  0  0  0  0  0
   -7.9844   71.0009   12.9778 H   0  0  0  0  0  0  0  0  0  0  0  0
   -7.7136   68.7484   18.7288 H   0  0  0  0  0  0  0  0  0  0  0  0
   -7.5301   67.7995   17.2292 H   0  0  0  0  0  0  0  0  0  0  0  0
  1  2  2  0
  1  6  1  0
  1  7  1  0
  2  3  1  0
  3  4  2  0
  3  8  1  0
  4  5  1  0
  5  6  2  0
  4  9  1  0
  5 10  1  0
  7 11  1  0
  7 12  1  0
  8 13  1  0
  8 14  1  0
A    1
C2
A    2
N3
A    3
C4
A    4
C5
A    5
C6
A    6
N1
A    7
N7
A    8
N8
M  END
