5UIR_8BY_A_800
     RDKit          3D

 43 45  0  0  0  0  0  0  0  0999 V2000
   -8.3240   17.4510   11.1460 C   0  0  0  0  0  0  0  0  0  0  0  0
   -9.7260   17.2110   11.0200 C   0  0  0  0  0  0  0  0  0  0  0  0
   -6.1620   17.8200   10.0440 C   0  0  0  0  0  0  0  0  0  0  0  0
   -8.3550   17.6210   13.7060 C   0  0  0  0  0  0  0  0  0  0  0  0
   -8.2270   17.6010    8.7100 C   0  0  0  0  0  0  0  0  0  0  0  0
   -7.5640   17.6350    9.9520 C   0  0  0  0  0  0  0  0  0  0  0  0
   -8.1250   16.7090   14.7300 C   0  0  0  0  0  0  0  0  0  0  0  0
   -9.3250   18.0810   16.2930 C   0  0  0  0  0  0  0  0  0  0  0  0
   -9.7910   18.3230   17.6360 C   0  0  0  0  0  0  0  0  0  0  0  0
  -13.9240   17.4060   10.0980 C   0  0  0  0  0  0  0  0  0  0  0  0
  -12.6310   16.9280   10.7060 C   0  0  0  0  0  0  0  0  0  0  0  0
  -12.6900   15.5030   11.1400 C   0  0  0  0  0  0  0  0  0  0  0  0
  -11.6800   17.0370    9.6150 O   0  0  0  0  0  0  0  0  0  0  0  0
  -10.3260   17.1920    9.7970 C   0  0  0  0  0  0  0  0  0  0  0  0
   -5.5380   17.8020   11.2540 C   0  0  0  0  0  0  0  0  0  0  0  0
   -6.2690   17.6310   12.4210 C   0  0  0  0  0  0  0  0  0  0  0  0
   -7.6390   17.4980   12.4060 C   0  0  0  0  0  0  0  0  0  0  0  0
   -9.1360   18.7440   13.9950 C   0  0  0  0  0  0  0  0  0  0  0  0
   -9.6160   18.9760   15.2700 C   0  0  0  0  0  0  0  0  0  0  0  0
   -8.5940   16.9360   16.0080 C   0  0  0  0  0  0  0  0  0  0  0  0
  -10.1500   18.4790   18.7090 N   0  0  0  0  0  0  0  0  0  0  0  0
   -9.5770   17.3710    8.6200 C   0  0  0  0  0  0  0  0  0  0  0  0
  -10.1170   17.3230    7.2180 C   0  0  0  0  0  0  0  0  0  0  0  0
   -9.3260   17.3260    6.2570 O   0  0  0  0  0  0  0  0  0  0  0  0
  -11.4330   17.1990    7.0430 N   0  0  0  0  0  0  0  0  0  0  0  0
  -10.3300   17.0390   11.9231 H   0  0  0  0  0  0  0  0  0  0  0  0
   -5.5723   17.9796    9.1292 H   0  0  0  0  0  0  0  0  0  0  0  0
   -7.6482   17.7629    7.7887 H   0  0  0  0  0  0  0  0  0  0  0  0
   -7.5590   15.7900   14.5177 H   0  0  0  0  0  0  0  0  0  0  0  0
  -14.6312   17.6674   10.8989 H   0  0  0  0  0  0  0  0  0  0  0  0
  -13.7310   18.2922    9.4756 H   0  0  0  0  0  0  0  0  0  0  0  0
  -14.3538   16.6073    9.4756 H   0  0  0  0  0  0  0  0  0  0  0  0
  -12.3792   17.5129   11.6029 H   0  0  0  0  0  0  0  0  0  0  0  0
  -12.6920   15.4542   12.2389 H   0  0  0  0  0  0  0  0  0  0  0  0
  -13.6081   15.0388   10.7507 H   0  0  0  0  0  0  0  0  0  0  0  0
  -11.8134   14.9645   10.7507 H   0  0  0  0  0  0  0  0  0  0  0  0
   -4.4461   17.9239   11.3069 H   0  0  0  0  0  0  0  0  0  0  0  0
   -5.7392   17.6009   13.3845 H   0  0  0  0  0  0  0  0  0  0  0  0
   -9.3731   19.4570   13.1916 H   0  0  0  0  0  0  0  0  0  0  0  0
  -10.2272   19.8673   15.4749 H   0  0  0  0  0  0  0  0  0  0  0  0
   -8.3875   16.2060   16.8046 H   0  0  0  0  0  0  0  0  0  0  0  0
  -12.0579   17.1401    7.8597 H   0  0  0  0  0  0  0  0  0  0  0  0
  -11.8247   17.1621    6.0911 H   0  0  0  0  0  0  0  0  0  0  0  0
 24 23  2  0
 25 23  1  0
 23 22  1  0
 22  5  2  0
 22 14  1  0
  5  6  1  0
 13 14  1  0
 13 11  1  0
 14  2  2  0
  6  3  1  0
  6  1  2  0
  3 15  2  0
 10 11  1  0
 11 12  1  0
  2  1  1  0
  1 17  1  0
 15 16  1  0
 17 16  2  0
 17  4  1  0
  4 18  1  0
  4  7  2  0
 18 19  2  0
  7 20  1  0
 19  8  1  0
 20  8  2  0
  8  9  1  0
  9 21  3  0
  2 26  1  0
  3 27  1  0
  5 28  1  0
  7 29  1  0
 10 30  1  0
 10 31  1  0
 10 32  1  0
 11 33  1  0
 12 34  1  0
 12 35  1  0
 12 36  1  0
 15 37  1  0
 16 38  1  0
 18 39  1  0
 19 40  1  0
 20 41  1  0
 25 42  1  0
 25 43  1  0
A    1
C7
A    2
C6
A    3
C9
A    4
C13
A    5
C21
A    6
C8
A    7
C18
A    8
C16
A    9
C19
A   10
C1
A   11
C2
A   12
C3
A   13
O4
A   14
C5
A   15
C10
A   16
C11
A   17
C12
A   18
C14
A   19
C15
A   20
C17
A   21
N20
A   22
C22
A   23
C23
A   24
O24
A   25
N25
M  END
