5UJ2_8B4_P_602
     RDKit          3D

 44 46  0  0  0  0  0  0  0  0999 V2000
   41.4790  -46.1300    7.5010 C   0  0  0  0  0  0  0  0  0  0  0  0
   39.8700  -45.6320   10.6890 C   0  0  0  0  0  0  0  0  0  0  0  0
   40.3900  -45.8900    9.4150 C   0  0  0  0  0  0  0  0  0  0  0  0
   38.1490  -46.6900    4.5570 F   0  0  0  0  0  0  0  0  0  0  0  0
   39.0890  -46.1550    5.3080 C   0  0  0  0  0  0  0  0  0  0  0  0
   38.4150  -45.0090    6.0660 C   0  0  0  0  0  0  0  0  0  0  0  0
   40.2260  -45.6880    4.4200 C   0  0  0  0  0  0  0  0  0  0  0  0
   39.7890  -44.9420    3.2760 O   0  0  0  0  0  0  0  0  0  0  0  0
   39.7460  -47.2880    6.1190 C   0  0  0  0  0  0  0  0  0  0  0  0
   40.7770  -47.8050    5.2670 O   0  0  0  0  0  0  0  0  0  0  0  0
   40.8290  -47.0350    4.0530 C   0  0  0  0  0  0  0  0  0  0  0  0
   42.2180  -46.9840    3.3880 C   0  0  0  0  0  0  0  0  0  0  0  0
   43.2740  -46.5560    4.2580 O   0  0  0  0  0  0  0  0  0  0  0  0
   44.3120  -45.4090    3.8410 P   0  0  0  0  0  0  0  0  0  0  0  0
   45.1930  -45.3240    5.0380 O   0  0  0  0  0  0  0  0  0  0  0  0
   43.4180  -44.0610    3.8550 O   0  0  0  0  0  0  0  0  0  0  0  0
   42.7480  -43.3160    2.5820 P   0  0  0  0  0  0  0  0  0  0  0  0
   43.4370  -41.9630    2.4880 O   0  0  0  0  0  0  0  0  0  0  0  0
   41.3070  -43.1700    3.0200 O   0  0  0  0  0  0  0  0  0  0  0  0
   42.9030  -44.2490    1.3990 O   0  0  0  0  0  0  0  0  0  0  0  0
   44.8810  -45.7240    2.4820 O   0  0  0  0  0  0  0  0  0  0  0  0
   40.2160  -46.6990    7.4010 C   0  0  0  0  0  0  0  0  0  0  0  0
   41.5720  -45.6440    8.7750 N   0  0  0  0  0  0  0  0  0  0  0  0
   40.5790  -44.9830   11.6360 N   0  0  0  0  0  0  0  0  0  0  0  0
   38.6170  -46.0270   10.9970 N   0  0  0  0  0  0  0  0  0  0  0  0
   37.8530  -46.6630   10.0900 C   0  0  0  0  0  0  0  0  0  0  0  0
   38.3080  -46.9300    8.8560 N   0  0  0  0  0  0  0  0  0  0  0  0
   39.5960  -46.5220    8.5530 N   0  0  0  0  0  0  0  0  0  0  0  0
   42.2474  -46.0806    6.7154 H   0  0  0  0  0  0  0  0  0  0  0  0
   38.5139  -45.1772    7.1486 H   0  0  0  0  0  0  0  0  0  0  0  0
   38.8975  -44.0577    5.7971 H   0  0  0  0  0  0  0  0  0  0  0  0
   37.3491  -44.9684    5.7971 H   0  0  0  0  0  0  0  0  0  0  0  0
   40.9186  -44.9792    4.8973 H   0  0  0  0  0  0  0  0  0  0  0  0
   39.3120  -44.1278    3.5755 H   0  0  0  0  0  0  0  0  0  0  0  0
   39.0869  -48.1230    6.3990 H   0  0  0  0  0  0  0  0  0  0  0  0
   40.2503  -47.5085    3.2462 H   0  0  0  0  0  0  0  0  0  0  0  0
   42.4614  -47.9920    3.0211 H   0  0  0  0  0  0  0  0  0  0  0  0
   42.1535  -46.2390    2.5813 H   0  0  0  0  0  0  0  0  0  0  0  0
   44.6413  -45.3772    5.8583 H   0  0  0  0  0  0  0  0  0  0  0  0
   43.6126  -41.6181    3.3992 H   0  0  0  0  0  0  0  0  0  0  0  0
   41.2615  -43.1654    4.0089 H   0  0  0  0  0  0  0  0  0  0  0  0
   40.3878  -45.1580   12.6329 H   0  0  0  0  0  0  0  0  0  0  0  0
   41.3114  -44.3126   11.3620 H   0  0  0  0  0  0  0  0  0  0  0  0
   36.8336  -46.9707   10.3660 H   0  0  0  0  0  0  0  0  0  0  0  0
 20 17  2  0
 21 14  2  0
 18 17  1  0
 17 19  1  0
 17 16  1  0
  8  7  1  0
 12 11  1  0
 12 13  1  0
 14 16  1  0
 14 13  1  0
 14 15  1  0
 11  7  1  0
 11 10  1  0
  7  5  1  0
  4  5  1  0
 10  9  1  0
  5  6  1  0
  5  9  1  0
  9 22  1  0
 22  1  2  0
 22 28  1  0
  1 23  1  0
 28 27  1  0
 28  3  1  0
 23  3  2  0
 27 26  2  0
  3  2  1  0
 26 25  1  0
  2 25  2  0
  2 24  1  0
  1 29  1  0
  6 30  1  0
  6 31  1  0
  6 32  1  0
  7 33  1  0
  8 34  1  0
  9 35  1  0
 11 36  1  0
 12 37  1  0
 12 38  1  0
 15 39  1  0
 18 40  1  0
 19 41  1  0
 24 42  1  0
 24 43  1  0
 26 44  1  0
A    1
C8
A    2
C6
A    3
C5
A    4
F2'
A    5
C2'
A    6
C2M
A    7
C3'
A    8
O3'
A    9
C1'
A   10
O4'
A   11
C4'
A   12
C5'
A   13
O5'
A   14
PA
A   15
O1A
A   16
O3A
A   17
PB
A   18
O1B
A   19
O2B
A   20
O3B
A   21
O2A
A   22
C9
A   23
N7
A   24
N6
A   25
N1
A   26
C2
A   27
N3
A   28
N4
M  END
