5UKM_T0E_A_701
     RDKit          3D

 58 62  0  0  0  0  0  0  0  0999 V2000
  -29.4160  -46.2830   -1.0160 O   0  0  0  0  0  0  0  0  0  0  0  0
  -29.0780  -45.4910   -1.8830 C   0  0  0  0  0  0  0  0  0  0  0  0
  -27.8220  -45.4120   -2.3450 N   0  0  0  0  0  0  0  0  0  0  0  0
  -26.7480  -46.2950   -1.9220 C   0  0  0  0  0  0  0  0  0  0  0  0
  -25.9890  -45.6250   -0.8180 C   0  0  0  0  0  0  0  0  0  0  0  0
  -25.3620  -44.4550   -0.9010 N   0  0  0  0  0  0  0  0  0  0  0  0
  -24.7590  -44.1420    0.3220 N   0  0  0  0  0  0  0  0  0  0  0  0
  -25.0480  -45.1570    1.1660 C   0  0  0  0  0  0  0  0  0  0  0  0
  -25.8060  -46.0850    0.4820 C   0  0  0  0  0  0  0  0  0  0  0  0
  -30.1570  -44.6350   -2.4970 C   0  0  0  0  0  0  0  0  0  0  0  0
  -31.0820  -43.9250   -1.7240 C   0  0  0  0  0  0  0  0  0  0  0  0
  -31.0350  -43.9400   -0.3730 F   0  0  0  0  0  0  0  0  0  0  0  0
  -30.2430  -44.5980   -3.8960 C   0  0  0  0  0  0  0  0  0  0  0  0
  -31.2340  -43.8540   -4.5540 C   0  0  0  0  0  0  0  0  0  0  0  0
  -32.1460  -43.1350   -3.7710 C   0  0  0  0  0  0  0  0  0  0  0  0
  -32.0710  -43.1730   -2.3730 C   0  0  0  0  0  0  0  0  0  0  0  0
  -31.3170  -43.7900   -6.0500 C   0  0  0  0  0  0  0  0  0  0  0  0
  -30.1660  -42.9520   -6.6150 C   0  0  0  0  0  0  0  0  0  0  0  0
  -30.1150  -42.9470   -8.1390 C   0  0  0  0  0  0  0  0  0  0  0  0
  -30.0910  -44.3210   -8.6370 N   0  0  0  0  0  0  0  0  0  0  0  0
  -31.3030  -45.0340   -8.2080 C   0  0  0  0  0  0  0  0  0  0  0  0
  -31.2950  -45.1710   -6.6900 C   0  0  0  0  0  0  0  0  0  0  0  0
  -30.1940  -41.5000   -6.1500 C   0  0  0  0  0  0  0  0  0  0  0  0
  -31.4790  -40.8650   -6.1510 O   0  0  0  0  0  0  0  0  0  0  0  0
  -31.5830  -39.4890   -6.0300 C   0  0  0  0  0  0  0  0  0  0  0  0
  -30.5110  -38.6850   -5.5880 C   0  0  0  0  0  0  0  0  0  0  0  0
  -30.6800  -37.3100   -5.4950 C   0  0  0  0  0  0  0  0  0  0  0  0
  -29.7780  -36.3710   -5.0880 O   0  0  0  0  0  0  0  0  0  0  0  0
  -30.3870  -35.0930   -5.2940 C   0  0  0  0  0  0  0  0  0  0  0  0
  -31.7510  -35.3770   -5.6580 O   0  0  0  0  0  0  0  0  0  0  0  0
  -31.8610  -36.7200   -5.8370 C   0  0  0  0  0  0  0  0  0  0  0  0
  -32.9390  -37.4650   -6.2860 C   0  0  0  0  0  0  0  0  0  0  0  0
  -32.7900  -38.8570   -6.3740 C   0  0  0  0  0  0  0  0  0  0  0  0
  -27.6056  -44.6833   -3.0400 H   0  0  0  0  0  0  0  0  0  0  0  0
  -27.1691  -47.2444   -1.5598 H   0  0  0  0  0  0  0  0  0  0  0  0
  -26.0768  -46.5042   -2.7680 H   0  0  0  0  0  0  0  0  0  0  0  0
  -25.3256  -43.8645   -1.7441 H   0  0  0  0  0  0  0  0  0  0  0  0
  -24.7331  -45.2307    2.2174 H   0  0  0  0  0  0  0  0  0  0  0  0
  -26.1982  -47.0266    0.8938 H   0  0  0  0  0  0  0  0  0  0  0  0
  -29.5149  -45.1668   -4.4929 H   0  0  0  0  0  0  0  0  0  0  0  0
  -32.9284  -42.5349   -4.2586 H   0  0  0  0  0  0  0  0  0  0  0  0
  -32.7988  -42.6044   -1.7756 H   0  0  0  0  0  0  0  0  0  0  0  0
  -32.2800  -43.3177   -6.2942 H   0  0  0  0  0  0  0  0  0  0  0  0
  -29.2688  -43.4496   -6.2182 H   0  0  0  0  0  0  0  0  0  0  0  0
  -29.2080  -42.4216   -8.4725 H   0  0  0  0  0  0  0  0  0  0  0  0
  -31.0054  -42.4336   -8.5310 H   0  0  0  0  0  0  0  0  0  0  0  0
  -29.2613  -44.8042   -8.2642 H   0  0  0  0  0  0  0  0  0  0  0  0
  -32.1927  -44.4681   -8.5214 H   0  0  0  0  0  0  0  0  0  0  0  0
  -31.3259  -46.0328   -8.6684 H   0  0  0  0  0  0  0  0  0  0  0  0
  -32.1821  -45.7368   -6.3693 H   0  0  0  0  0  0  0  0  0  0  0  0
  -30.3845  -45.7030   -6.3771 H   0  0  0  0  0  0  0  0  0  0  0  0
  -29.8036  -41.4681   -5.1221 H   0  0  0  0  0  0  0  0  0  0  0  0
  -29.5873  -40.9431   -6.8792 H   0  0  0  0  0  0  0  0  0  0  0  0
  -29.5483  -39.1442   -5.3190 H   0  0  0  0  0  0  0  0  0  0  0  0
  -29.8774  -34.5492   -6.1031 H   0  0  0  0  0  0  0  0  0  0  0  0
  -30.3251  -34.4595   -4.3969 H   0  0  0  0  0  0  0  0  0  0  0  0
  -33.8852  -36.9787   -6.5657 H   0  0  0  0  0  0  0  0  0  0  0  0
  -33.6370  -39.4676   -6.7201 H   0  0  0  0  0  0  0  0  0  0  0  0
 20 21  1  0
 20 19  1  0
 21 22  1  0
 19 18  1  0
 22 17  1  0
 18 23  1  0
 18 17  1  0
 33 32  2  0
 33 25  1  0
 32 31  1  0
 24 23  1  0
 24 25  1  0
 17 14  1  0
 25 26  2  0
 31 30  1  0
 31 27  2  0
 30 29  1  0
 26 27  1  0
 27 28  1  0
 29 28  1  0
 14 13  2  0
 14 15  1  0
 13 10  1  0
 15 16  2  0
 10  2  1  0
 10 11  2  0
 16 11  1  0
  3  4  1  0
  3  2  1  0
  4  5  1  0
  2  1  2  0
 11 12  1  0
  6  5  1  0
  6  7  1  0
  5  9  2  0
  7  8  2  0
  9  8  1  0
  3 34  1  0
  4 35  1  0
  4 36  1  0
  6 37  1  0
  8 38  1  0
  9 39  1  0
 13 40  1  0
 15 41  1  0
 16 42  1  0
 17 43  1  0
 18 44  1  0
 19 45  1  0
 19 46  1  0
 20 47  1  0
 21 48  1  0
 21 49  1  0
 22 50  1  0
 22 51  1  0
 23 52  1  0
 23 53  1  0
 26 54  1  0
 29 55  1  0
 29 56  1  0
 32 57  1  0
 33 58  1  0
A    1
O
A    2
C6
A    3
N
A    4
C7
A    5
C8
A    6
N2
A    7
N1
A    8
C10
A    9
C9
A   10
C5
A   11
C
A   12
F
A   13
C4
A   14
C3
A   15
C2
A   16
C1
A   17
C11
A   18
C15
A   19
C14
A   20
N3
A   21
C13
A   22
C12
A   23
C16
A   24
O1
A   25
C17
A   26
C23
A   27
C22
A   28
O3
A   29
C21
A   30
O2
A   31
C20
A   32
C19
A   33
C18
M  END
