5ULG_8E4_A_603
     RDKit          3D

 47 47  0  0  0  0  0  0  0  0999 V2000
  -43.3190  135.9940    7.6370 C   0  0  0  0  0  0  0  0  0  0  0  0
  -41.0990  137.2240    7.1370 C   0  0  0  0  0  0  0  0  0  0  0  0
  -39.3800  135.4020    9.8910 C   0  0  0  0  0  0  0  0  0  0  0  0
  -37.2340  131.9990    8.2780 C   0  0  0  0  0  0  0  0  0  0  0  0
  -37.8090  133.7680   11.4770 C   0  0  0  0  0  0  0  0  0  0  0  0
  -40.8470  140.9480    6.6530 O   0  0  0  0  0  0  0  0  0  0  0  0
  -41.0280  139.5960    6.2350 C   0  0  0  0  0  0  0  0  0  0  0  0
  -40.4420  138.6050    7.2140 C   0  0  0  0  0  0  0  0  0  0  0  0
  -42.4780  137.2410    7.8290 C   0  0  0  0  0  0  0  0  0  0  0  0
  -44.7490  136.1460    8.1690 C   0  0  0  0  0  0  0  0  0  0  0  0
  -40.1100  136.2120    7.6860 C   0  0  0  0  0  0  0  0  0  0  0  0
  -40.1490  136.2530    9.1220 O   0  0  0  0  0  0  0  0  0  0  0  0
  -38.4700  134.5100    9.3020 C   0  0  0  0  0  0  0  0  0  0  0  0
  -39.4950  135.4740   11.2680 C   0  0  0  0  0  0  0  0  0  0  0  0
  -38.6990  134.6610   12.0530 C   0  0  0  0  0  0  0  0  0  0  0  0
  -37.6970  133.6590   10.1000 C   0  0  0  0  0  0  0  0  0  0  0  0
  -36.6910  132.6690    9.5270 C   0  0  0  0  0  0  0  0  0  0  0  0
  -35.4960  133.2950    9.0810 O   0  0  0  0  0  0  0  0  0  0  0  0
  -36.3260  130.8700    7.7970 C   0  0  0  0  0  0  0  0  0  0  0  0
  -34.9760  131.2840    7.5060 N   0  0  0  0  0  0  0  0  0  0  0  0
  -43.3676  135.7665    6.5619 H   0  0  0  0  0  0  0  0  0  0  0  0
  -42.8407  135.1844    8.2077 H   0  0  0  0  0  0  0  0  0  0  0  0
  -41.3239  136.9279    6.1018 H   0  0  0  0  0  0  0  0  0  0  0  0
  -37.3197  132.7510    7.4798 H   0  0  0  0  0  0  0  0  0  0  0  0
  -38.2154  131.5665    8.5225 H   0  0  0  0  0  0  0  0  0  0  0  0
  -37.1818  133.1360   12.1229 H   0  0  0  0  0  0  0  0  0  0  0  0
  -40.8414  140.9897    7.6421 H   0  0  0  0  0  0  0  0  0  0  0  0
  -42.1056  139.3986    6.1354 H   0  0  0  0  0  0  0  0  0  0  0  0
  -40.5037  139.4692    5.2763 H   0  0  0  0  0  0  0  0  0  0  0  0
  -39.3687  138.4944    7.0000 H   0  0  0  0  0  0  0  0  0  0  0  0
  -40.6221  138.9978    8.2256 H   0  0  0  0  0  0  0  0  0  0  0  0
  -42.3142  137.3767    8.9082 H   0  0  0  0  0  0  0  0  0  0  0  0
  -43.0416  138.0611    7.3601 H   0  0  0  0  0  0  0  0  0  0  0  0
  -44.7331  136.1443    9.2689 H   0  0  0  0  0  0  0  0  0  0  0  0
  -45.1749  137.0945    7.8099 H   0  0  0  0  0  0  0  0  0  0  0  0
  -45.3648  135.3083    7.8099 H   0  0  0  0  0  0  0  0  0  0  0  0
  -40.3815  135.2044    7.3381 H   0  0  0  0  0  0  0  0  0  0  0  0
  -39.0962  136.4537    7.3342 H   0  0  0  0  0  0  0  0  0  0  0  0
  -38.3640  134.4798    8.2075 H   0  0  0  0  0  0  0  0  0  0  0  0
  -40.2104  136.1690   11.7319 H   0  0  0  0  0  0  0  0  0  0  0  0
  -38.7728  134.7235   13.1487 H   0  0  0  0  0  0  0  0  0  0  0  0
  -36.4991  131.9659   10.3509 H   0  0  0  0  0  0  0  0  0  0  0  0
  -34.9589  133.5763    9.8636 H   0  0  0  0  0  0  0  0  0  0  0  0
  -36.7613  130.4428    6.8815 H   0  0  0  0  0  0  0  0  0  0  0  0
  -36.2642  130.1408    8.6183 H   0  0  0  0  0  0  0  0  0  0  0  0
  -34.4671  131.4401    8.3878 H   0  0  0  0  0  0  0  0  0  0  0  0
  -34.5016  130.5498    6.9611 H   0  0  0  0  0  0  0  0  0  0  0  0
  7  6  1  0
  7  8  1  0
  2  8  1  0
  2 11  1  0
  2  9  1  0
 20 19  1  0
  1  9  1  0
  1 10  1  0
 11 12  1  0
 19  4  1  0
  4 17  1  0
 18 17  1  0
 12  3  1  0
 13  3  2  0
 13 16  1  0
 17 16  1  0
  3 14  1  0
 16  5  2  0
 14 15  2  0
  5 15  1  0
  1 21  1  0
  1 22  1  0
  2 23  1  0
  4 24  1  0
  4 25  1  0
  5 26  1  0
  6 27  1  0
  7 28  1  0
  7 29  1  0
  8 30  1  0
  8 31  1  0
  9 32  1  0
  9 33  1  0
 10 34  1  0
 10 35  1  0
 10 36  1  0
 11 37  1  0
 11 38  1  0
 13 39  1  0
 14 40  1  0
 15 41  1  0
 17 42  1  0
 18 43  1  0
 19 44  1  0
 19 45  1  0
 20 46  1  0
 20 47  1  0
A    1
C9
A    2
C7
A    3
C5
A    4
C1
A    5
C15
A    6
O2
A    7
C12
A    8
C11
A    9
C8
A   10
C10
A   11
C6
A   12
O1
A   13
C4
A   14
C13
A   15
C14
A   16
C3
A   17
C2
A   18
O
A   19
C
A   20
N
M  END
