4FS3_0WD_A_301
     RDKit          3D

 78 82  0  0  0  0  0  0  0  0999 V2000
  107.5610   65.2380   32.0380 O   0  0  0  0  0  0  0  0  0  0  0  0
  107.7430   64.2530   32.7300 C   0  0  0  0  0  0  0  0  0  0  0  0
  106.9400   63.9650   33.7540 N   0  0  0  0  0  0  0  0  0  0  0  0
  108.9460   63.3890   32.4530 C   0  0  0  0  0  0  0  0  0  0  0  0
  109.5090   62.6380   33.4950 C   0  0  0  0  0  0  0  0  0  0  0  0
  109.5240   63.3640   31.1750 C   0  0  0  0  0  0  0  0  0  0  0  0
  110.6820   62.5830   30.9870 C   0  0  0  0  0  0  0  0  0  0  0  0
  111.1940   61.8570   32.0450 C   0  0  0  0  0  0  0  0  0  0  0  0
  110.6190   61.8980   33.2720 N   0  0  0  0  0  0  0  0  0  0  0  0
  111.2090   61.0520   34.3170 C   0  0  0  0  0  0  0  0  0  0  0  0
  111.4120   61.5800   35.7290 C   0  0  0  0  0  0  0  0  0  0  0  0
  112.6260   62.2670   35.8690 O   0  0  0  0  0  0  0  0  0  0  0  0
  111.4110   60.3020   36.5570 C   0  0  0  0  0  0  0  0  0  0  0  0
  112.6570   59.6120   36.5420 O   0  0  0  0  0  0  0  0  0  0  0  0
  110.3050   59.9670   34.5330 O   0  0  0  0  0  0  0  0  0  0  0  0
  110.4460   59.3970   35.8370 C   0  0  0  0  0  0  0  0  0  0  0  0
  109.0970   59.2840   36.5470 C   0  0  0  0  0  0  0  0  0  0  0  0
  108.3950   60.5040   36.3480 O   0  0  0  0  0  0  0  0  0  0  0  0
  106.8350   60.7120   36.6680 P   0  0  0  0  0  0  0  0  0  0  0  0
  106.0620   59.4700   36.2430 O   0  0  0  0  0  0  0  0  0  0  0  0
  106.6000   62.0380   36.0060 O   0  0  0  0  0  0  0  0  0  0  0  0
  106.9580   60.8590   38.2680 O   0  0  0  0  0  0  0  0  0  0  0  0
  105.8080   60.6130   39.3650 P   0  0  0  0  0  0  0  0  0  0  0  0
  104.5260   60.1960   38.6820 O   0  0  0  0  0  0  0  0  0  0  0  0
  105.8490   61.7650   40.3320 O   0  0  0  0  0  0  0  0  0  0  0  0
  106.4480   59.3960   40.1850 O   0  0  0  0  0  0  0  0  0  0  0  0
  107.5760   59.6550   41.0120 C   0  0  0  0  0  0  0  0  0  0  0  0
  107.9390   58.4160   41.7990 C   0  0  0  0  0  0  0  0  0  0  0  0
  107.1020   58.2680   43.0620 C   0  0  0  0  0  0  0  0  0  0  0  0
  106.8850   56.8630   43.1650 O   0  0  0  0  0  0  0  0  0  0  0  0
  106.3160   56.0130   44.4160 P   0  0  0  0  0  0  0  0  0  0  0  0
  107.2900   56.1540   45.5570 O   0  0  0  0  0  0  0  0  0  0  0  0
  104.9680   56.6300   44.7150 O   0  0  0  0  0  0  0  0  0  0  0  0
  106.3440   54.6070   43.8360 O   0  0  0  0  0  0  0  0  0  0  0  0
  109.3220   58.4320   42.2120 O   0  0  0  0  0  0  0  0  0  0  0  0
  109.3400   58.0580   43.5920 C   0  0  0  0  0  0  0  0  0  0  0  0
  108.0910   58.7700   44.0870 C   0  0  0  0  0  0  0  0  0  0  0  0
  107.7600   58.5030   45.4410 O   0  0  0  0  0  0  0  0  0  0  0  0
  110.4850   58.4910   44.4200 N   0  0  0  0  0  0  0  0  0  0  0  0
  111.1780   57.7210   45.2410 C   0  0  0  0  0  0  0  0  0  0  0  0
  111.0420   56.3030   45.4880 N   0  0  0  0  0  0  0  0  0  0  0  0
  111.8780   55.7070   46.3640 C   0  0  0  0  0  0  0  0  0  0  0  0
  112.8310   56.4010   47.0150 N   0  0  0  0  0  0  0  0  0  0  0  0
  112.1990   58.5100   45.8970 C   0  0  0  0  0  0  0  0  0  0  0  0
  113.0430   57.7390   46.8380 C   0  0  0  0  0  0  0  0  0  0  0  0
  114.0120   58.3830   47.5170 N   0  0  0  0  0  0  0  0  0  0  0  0
  112.0480   59.7690   45.4430 N   0  0  0  0  0  0  0  0  0  0  0  0
  111.0050   59.7370   44.5570 C   0  0  0  0  0  0  0  0  0  0  0  0
  107.2748   64.0851   34.7206 H   0  0  0  0  0  0  0  0  0  0  0  0
  105.9846   63.6223   33.5787 H   0  0  0  0  0  0  0  0  0  0  0  0
  109.0479   62.6508   34.4936 H   0  0  0  0  0  0  0  0  0  0  0  0
  109.7826   64.4005   30.9128 H   0  0  0  0  0  0  0  0  0  0  0  0
  108.7642   62.8856   30.5395 H   0  0  0  0  0  0  0  0  0  0  0  0
  111.1750   62.5517   30.0042 H   0  0  0  0  0  0  0  0  0  0  0  0
  112.0863   61.2330   31.8886 H   0  0  0  0  0  0  0  0  0  0  0  0
  112.2133   60.8694   33.9071 H   0  0  0  0  0  0  0  0  0  0  0  0
  110.6450   62.3098   36.0274 H   0  0  0  0  0  0  0  0  0  0  0  0
  112.8306   62.3828   36.8307 H   0  0  0  0  0  0  0  0  0  0  0  0
  111.1734   60.5510   37.6018 H   0  0  0  0  0  0  0  0  0  0  0  0
  112.9543   59.4474   37.4719 H   0  0  0  0  0  0  0  0  0  0  0  0
  110.8255   58.3651   35.8028 H   0  0  0  0  0  0  0  0  0  0  0  0
  108.5208   58.4479   36.1239 H   0  0  0  0  0  0  0  0  0  0  0  0
  109.2437   59.0971   37.6210 H   0  0  0  0  0  0  0  0  0  0  0  0
  105.7570   58.9799   37.0473 H   0  0  0  0  0  0  0  0  0  0  0  0
  105.8367   61.4182   41.2592 H   0  0  0  0  0  0  0  0  0  0  0  0
  108.4288   59.9489   40.3825 H   0  0  0  0  0  0  0  0  0  0  0  0
  107.3301   60.4670   41.7122 H   0  0  0  0  0  0  0  0  0  0  0  0
  107.7461   57.5752   41.1165 H   0  0  0  0  0  0  0  0  0  0  0  0
  106.1315   58.7808   43.1345 H   0  0  0  0  0  0  0  0  0  0  0  0
  106.8038   56.0836   46.4165 H   0  0  0  0  0  0  0  0  0  0  0  0
  104.8417   56.6878   45.6952 H   0  0  0  0  0  0  0  0  0  0  0  0
  109.4034   56.9631   43.6769 H   0  0  0  0  0  0  0  0  0  0  0  0
  108.1649   59.8661   44.1427 H   0  0  0  0  0  0  0  0  0  0  0  0
  108.3761   59.0000   46.0355 H   0  0  0  0  0  0  0  0  0  0  0  0
  111.7785   54.6276   46.5509 H   0  0  0  0  0  0  0  0  0  0  0  0
  114.0080   58.3803   48.5470 H   0  0  0  0  0  0  0  0  0  0  0  0
  114.7569   58.8781   47.0062 H   0  0  0  0  0  0  0  0  0  0  0  0
  110.6312   60.6200   44.0179 H   0  0  0  0  0  0  0  0  0  0  0  0
  7  6  1  0
  7  8  2  0
  6  4  1  0
  1  2  2  0
  8  9  1  0
  4  2  1  0
  4  5  2  0
  2  3  1  0
  9  5  1  0
  9 10  1  0
 10 15  1  0
 10 11  1  0
 15 16  1  0
 11 12  1  0
 11 13  1  0
 16 17  1  0
 16 13  1  0
 21 19  2  0
 20 19  1  0
 18 17  1  0
 18 19  1  0
 14 13  1  0
 19 22  1  0
 22 23  1  0
 24 23  2  0
 23 26  1  0
 23 25  1  0
 26 27  1  0
 27 28  1  0
 28 35  1  0
 28 29  1  0
 35 36  1  0
 29 30  1  0
 29 37  1  0
 30 31  1  0
 36 37  1  0
 36 39  1  0
 34 31  2  0
 37 38  1  0
 31 33  1  0
 31 32  1  0
 39 48  1  0
 39 40  1  0
 48 47  2  0
 40 41  2  0
 40 44  1  0
 47 44  1  0
 41 42  1  0
 44 45  2  0
 42 43  2  0
 45 43  1  0
 45 46  1  0
  3 49  1  0
  3 50  1  0
  5 51  1  0
  6 52  1  0
  6 53  1  0
  7 54  1  0
  8 55  1  0
 10 56  1  0
 11 57  1  0
 12 58  1  0
 13 59  1  0
 14 60  1  0
 16 61  1  0
 17 62  1  0
 17 63  1  0
 20 64  1  0
 25 65  1  0
 27 66  1  0
 27 67  1  0
 28 68  1  0
 29 69  1  0
 32 70  1  0
 33 71  1  0
 36 72  1  0
 37 73  1  0
 38 74  1  0
 42 75  1  0
 46 76  1  0
 46 77  1  0
 48 78  1  0
A    1
O7N
A    2
C7N
A    3
N7N
A    4
C3N
A    5
C2N
A    6
C4N
A    7
C5N
A    8
C6N
A    9
N1N
A   10
C1M
A   11
C2M
A   12
O2M
A   13
C3M
A   14
O3M
A   15
O4M
A   16
C4M
A   17
C5M
A   18
O5M
A   19
PN
A   20
O1N
A   21
O2N
A   22
O3P
A   23
PA
A   24
O1A
A   25
O2A
A   26
O5B
A   27
C5B
A   28
C4B
A   29
C3B
A   30
O3B
A   31
P2'
A   32
OP2
A   33
OP1
A   34
OP3
A   35
O4B
A   36
C1B
A   37
C2B
A   38
O2B
A   39
N9A
A   40
C4A
A   41
N3A
A   42
C2A
A   43
N1A
A   44
C5A
A   45
C6A
A   46
N6A
A   47
N7A
A   48
C8A
M  END
