5UM6_8EA_A_1102
     RDKit          3D

 55 55  0  0  0  0  0  0  0  0999 V2000
  161.3220  153.2450  265.3570 C   0  0  0  0  0  0  0  0  0  0  0  0
  161.9360  151.3330  273.8690 C   0  0  0  0  0  0  0  0  0  0  0  0
  161.2410  150.6930  275.0630 C   0  0  0  0  0  0  0  0  0  0  0  0
  154.4740  154.9320  263.9120 C   0  0  0  0  0  0  0  0  0  0  0  0
  153.1730  155.7480  261.9080 C   0  0  0  0  0  0  0  0  0  0  0  0
  155.4780  156.7860  260.7410 C   0  0  0  0  0  0  0  0  0  0  0  0
  153.0910  156.3850  260.6710 C   0  0  0  0  0  0  0  0  0  0  0  0
  154.1700  157.6860  258.5730 Cl  0  0  0  0  0  0  0  0  0  0  0  0
  156.5830  153.1440  265.6350 S   0  0  0  0  0  0  0  0  0  0  0  0
  156.1750  155.0170  264.6960 S   0  0  0  0  0  0  0  0  0  0  0  0
  160.1020  151.2030  264.5480 N   0  0  0  0  0  0  0  0  0  0  0  0
  161.8610  152.5160  269.0310 C   0  0  0  0  0  0  0  0  0  0  0  0
  161.0110  153.1250  267.9000 C   0  0  0  0  0  0  0  0  0  0  0  0
  161.0030  151.9160  270.1580 C   0  0  0  0  0  0  0  0  0  0  0  0
  161.8820  153.6440  266.7350 C   0  0  0  0  0  0  0  0  0  0  0  0
  161.8640  151.4750  271.3520 C   0  0  0  0  0  0  0  0  0  0  0  0
  161.0350  151.3430  272.6340 C   0  0  0  0  0  0  0  0  0  0  0  0
  161.3870  151.7120  265.1290 C   0  0  0  0  0  0  0  0  0  0  0  0
  158.8820  151.4750  265.3750 C   0  0  0  0  0  0  0  0  0  0  0  0
  157.7540  152.1470  264.5490 C   0  0  0  0  0  0  0  0  0  0  0  0
  154.3960  155.6190  262.5810 C   0  0  0  0  0  0  0  0  0  0  0  0
  155.5420  156.1470  261.9780 C   0  0  0  0  0  0  0  0  0  0  0  0
  154.2530  156.8940  260.1100 C   0  0  0  0  0  0  0  0  0  0  0  0
  161.9110  153.7463  264.5749 H   0  0  0  0  0  0  0  0  0  0  0  0
  160.2664  153.5517  265.3158 H   0  0  0  0  0  0  0  0  0  0  0  0
  162.8493  150.7643  273.6403 H   0  0  0  0  0  0  0  0  0  0  0  0
  162.1771  152.3745  274.1281 H   0  0  0  0  0  0  0  0  0  0  0  0
  161.6719  151.0898  275.9941 H   0  0  0  0  0  0  0  0  0  0  0  0
  160.1661  150.9241  275.0288 H   0  0  0  0  0  0  0  0  0  0  0  0
  161.3829  149.6027  275.0288 H   0  0  0  0  0  0  0  0  0  0  0  0
  153.7524  155.4075  264.5925 H   0  0  0  0  0  0  0  0  0  0  0  0
  154.2477  153.8690  263.7423 H   0  0  0  0  0  0  0  0  0  0  0  0
  152.2602  155.3385  262.3652 H   0  0  0  0  0  0  0  0  0  0  0  0
  156.3859  157.1969  260.2753 H   0  0  0  0  0  0  0  0  0  0  0  0
  152.1264  156.4819  260.1513 H   0  0  0  0  0  0  0  0  0  0  0  0
  159.9696  151.6462  263.6277 H   0  0  0  0  0  0  0  0  0  0  0  0
  162.4929  151.7212  268.6080 H   0  0  0  0  0  0  0  0  0  0  0  0
  162.4650  153.3255  269.4669 H   0  0  0  0  0  0  0  0  0  0  0  0
  160.4268  153.9634  268.3072 H   0  0  0  0  0  0  0  0  0  0  0  0
  160.3540  152.3353  267.5066 H   0  0  0  0  0  0  0  0  0  0  0  0
  160.2814  152.6731  270.4987 H   0  0  0  0  0  0  0  0  0  0  0  0
  160.4856  151.0299  269.7615 H   0  0  0  0  0  0  0  0  0  0  0  0
  162.8946  153.2269  266.8385 H   0  0  0  0  0  0  0  0  0  0  0  0
  161.8900  154.7427  266.7872 H   0  0  0  0  0  0  0  0  0  0  0  0
  162.3204  150.5011  271.1213 H   0  0  0  0  0  0  0  0  0  0  0  0
  162.6337  152.2426  271.5203 H   0  0  0  0  0  0  0  0  0  0  0  0
  160.3400  152.1929  272.7023 H   0  0  0  0  0  0  0  0  0  0  0  0
  160.4799  150.3941  272.5968 H   0  0  0  0  0  0  0  0  0  0  0  0
  161.5701  151.2121  266.0916 H   0  0  0  0  0  0  0  0  0  0  0  0
  162.2022  151.4958  264.4228 H   0  0  0  0  0  0  0  0  0  0  0  0
  158.5071  150.5225  265.7778 H   0  0  0  0  0  0  0  0  0  0  0  0
  159.1675  152.1655  266.1823 H   0  0  0  0  0  0  0  0  0  0  0  0
  158.2095  152.8194  263.8071 H   0  0  0  0  0  0  0  0  0  0  0  0
  157.1709  151.3523  264.0607 H   0  0  0  0  0  0  0  0  0  0  0  0
  156.5117  156.0563  262.4893 H   0  0  0  0  0  0  0  0  0  0  0  0
  8 23  1  0
 23  7  1  0
 23  6  2  0
  7  5  2  0
  6 22  1  0
  5 21  1  0
 22 21  2  0
 21  4  1  0
  4 10  1  0
 11 18  1  0
 11 19  1  0
 20 19  1  0
 20  9  1  0
 10  9  1  0
 18  1  1  0
  1 15  1  0
 15 13  1  0
 13 12  1  0
 12 14  1  0
 14 16  1  0
 16 17  1  0
 17  2  1  0
  2  3  1  0
  1 24  1  0
  1 25  1  0
  2 26  1  0
  2 27  1  0
  3 28  1  0
  3 29  1  0
  3 30  1  0
  4 31  1  0
  4 32  1  0
  5 33  1  0
  6 34  1  0
  7 35  1  0
 11 36  1  0
 12 37  1  0
 12 38  1  0
 13 39  1  0
 13 40  1  0
 14 41  1  0
 14 42  1  0
 15 43  1  0
 15 44  1  0
 16 45  1  0
 16 46  1  0
 17 47  1  0
 17 48  1  0
 18 49  1  0
 18 50  1  0
 19 51  1  0
 19 52  1  0
 20 53  1  0
 20 54  1  0
 22 55  1  0
A    1
C10
A    2
C13
A    3
C15
A    4
C17
A    5
C20
A    6
C21
A    7
C22
A    8
CL
A    9
S02
A   10
S03
A   11
N04
A   12
C05
A   13
C06
A   14
C07
A   15
C08
A   16
C09
A   17
C11
A   18
C12
A   19
C14
A   20
C16
A   21
C18
A   22
C19
A   23
C23
M  END
