5UNF_8ES_A_1501
     RDKit          3D

 75 81  0  0  0  0  0  0  0  0999 V2000
   77.2430   -2.6060   37.2950 N   0  0  0  0  0  0  0  0  0  0  0  0
   82.5880   -2.2980   32.9460 N   0  0  0  0  0  0  0  0  0  0  0  0
   74.1450   -3.7880   38.0500 C   0  0  0  0  0  0  0  0  0  0  0  0
   78.5510   -2.5380   37.7490 C   0  0  0  0  0  0  0  0  0  0  0  0
   76.6060   -1.4080   36.7470 C   0  0  0  0  0  0  0  0  0  0  0  0
   77.2570   -0.9830   35.4180 C   0  0  0  0  0  0  0  0  0  0  0  0
   77.2750    0.3010   35.1150 C   0  0  0  0  0  0  0  0  0  0  0  0
   78.4570   -0.0760   32.9620 C   0  0  0  0  0  0  0  0  0  0  0  0
   81.3150   -0.6540   32.2170 C   0  0  0  0  0  0  0  0  0  0  0  0
   80.2280    1.5970   29.3620 C   0  0  0  0  0  0  0  0  0  0  0  0
   78.3370    1.3070   30.8420 C   0  0  0  0  0  0  0  0  0  0  0  0
   79.0780   -6.1590   38.6670 C   0  0  0  0  0  0  0  0  0  0  0  0
   80.4220   -6.1240   39.0850 C   0  0  0  0  0  0  0  0  0  0  0  0
   81.1680   -4.9180   39.0740 C   0  0  0  0  0  0  0  0  0  0  0  0
   83.6450   -5.2320   38.6010 C   0  0  0  0  0  0  0  0  0  0  0  0
   82.5040   -5.1380   36.2100 C   0  0  0  0  0  0  0  0  0  0  0  0
   83.6050   -6.8320   34.8570 C   0  0  0  0  0  0  0  0  0  0  0  0
   84.7650   -5.1680   38.9850 O   0  0  0  0  0  0  0  0  0  0  0  0
   83.4270   -5.6970   37.1550 C   0  0  0  0  0  0  0  0  0  0  0  0
   84.3620   -6.9170   36.3960 S   0  0  0  0  0  0  0  0  0  0  0  0
   82.5950   -5.8170   34.8530 C   0  0  0  0  0  0  0  0  0  0  0  0
   82.5530   -4.8670   39.5050 N   0  0  0  0  0  0  0  0  0  0  0  0
   82.8430   -4.4170   40.8630 C   0  0  0  0  0  0  0  0  0  0  0  0
   82.3160   -5.4530   41.8540 C   0  0  0  0  0  0  0  0  0  0  0  0
   82.9850   -6.8270   41.9300 C   0  0  0  0  0  0  0  0  0  0  0  0
   82.5360   -7.7330   42.7790 C   0  0  0  0  0  0  0  0  0  0  0  0
   81.3310   -7.4180   43.6730 C   0  0  0  0  0  0  0  0  0  0  0  0
   80.7520   -6.2340   43.6030 C   0  0  0  0  0  0  0  0  0  0  0  0
   81.2730   -5.1810   42.6160 C   0  0  0  0  0  0  0  0  0  0  0  0
   78.4800   -4.9870   38.2300 C   0  0  0  0  0  0  0  0  0  0  0  0
   80.5290   -3.7530   38.6350 C   0  0  0  0  0  0  0  0  0  0  0  0
   79.2220   -3.7810   38.2200 C   0  0  0  0  0  0  0  0  0  0  0  0
   79.2860   -1.3390   37.7190 O   0  0  0  0  0  0  0  0  0  0  0  0
   76.5570   -3.8700   37.3500 C   0  0  0  0  0  0  0  0  0  0  0  0
   75.1020   -4.0090   36.8810 C   0  0  0  0  0  0  0  0  0  0  0  0
   77.1470   -5.0220   37.7840 N   0  0  0  0  0  0  0  0  0  0  0  0
   77.8780   -1.9980   34.4340 C   0  0  0  0  0  0  0  0  0  0  0  0
   78.4250   -1.5800   33.2960 C   0  0  0  0  0  0  0  0  0  0  0  0
   77.9240    0.7800   33.8170 C   0  0  0  0  0  0  0  0  0  0  0  0
   79.0940    0.4740   31.6720 C   0  0  0  0  0  0  0  0  0  0  0  0
   78.9000    1.8620   29.6940 C   0  0  0  0  0  0  0  0  0  0  0  0
   80.9930    0.7860   30.1900 C   0  0  0  0  0  0  0  0  0  0  0  0
   80.4400    0.2450   31.3510 C   0  0  0  0  0  0  0  0  0  0  0  0
   81.6110   -0.4780   33.5920 N   0  0  0  0  0  0  0  0  0  0  0  0
   82.4010   -1.4920   34.0340 N   0  0  0  0  0  0  0  0  0  0  0  0
   81.9160   -1.7870   31.8230 N   0  0  0  0  0  0  0  0  0  0  0  0
   83.1464   -3.1635   32.9490 H   0  0  0  0  0  0  0  0  0  0  0  0
   74.6889   -3.9136   38.9979 H   0  0  0  0  0  0  0  0  0  0  0  0
   73.7304   -2.7705   37.9972 H   0  0  0  0  0  0  0  0  0  0  0  0
   73.3263   -4.5207   37.9972 H   0  0  0  0  0  0  0  0  0  0  0  0
   75.5403   -1.6174   36.5725 H   0  0  0  0  0  0  0  0  0  0  0  0
   76.7297   -0.5887   37.4705 H   0  0  0  0  0  0  0  0  0  0  0  0
   76.8202    1.0310   35.8007 H   0  0  0  0  0  0  0  0  0  0  0  0
   80.6670    2.0276   28.4499 H   0  0  0  0  0  0  0  0  0  0  0  0
   77.2896    1.5258   31.0970 H   0  0  0  0  0  0  0  0  0  0  0  0
   78.5112   -7.1015   38.6868 H   0  0  0  0  0  0  0  0  0  0  0  0
   80.9036   -7.0518   39.4274 H   0  0  0  0  0  0  0  0  0  0  0  0
   81.8117   -4.3148   36.4402 H   0  0  0  0  0  0  0  0  0  0  0  0
   83.8599   -7.4674   33.9960 H   0  0  0  0  0  0  0  0  0  0  0  0
   81.9692   -5.5628   33.9848 H   0  0  0  0  0  0  0  0  0  0  0  0
   82.3509   -3.4500   41.0440 H   0  0  0  0  0  0  0  0  0  0  0  0
   83.9291   -4.2993   40.9912 H   0  0  0  0  0  0  0  0  0  0  0  0
   83.8395   -7.0598   41.2777 H   0  0  0  0  0  0  0  0  0  0  0  0
   83.0271   -8.7151   42.8450 H   0  0  0  0  0  0  0  0  0  0  0  0
   80.9497   -8.1774   44.3715 H   0  0  0  0  0  0  0  0  0  0  0  0
   79.8953   -6.0019   44.2527 H   0  0  0  0  0  0  0  0  0  0  0  0
   80.7782   -4.2012   42.5435 H   0  0  0  0  0  0  0  0  0  0  0  0
   81.0822   -2.8023   38.6226 H   0  0  0  0  0  0  0  0  0  0  0  0
   74.9476   -5.0182   36.4714 H   0  0  0  0  0  0  0  0  0  0  0  0
   74.9018   -3.2535   36.1070 H   0  0  0  0  0  0  0  0  0  0  0  0
   77.8680   -3.0712   34.6752 H   0  0  0  0  0  0  0  0  0  0  0  0
   78.8549   -2.3084   32.5927 H   0  0  0  0  0  0  0  0  0  0  0  0
   77.9481    1.8561   33.5901 H   0  0  0  0  0  0  0  0  0  0  0  0
   78.2935    2.5124   29.0466 H   0  0  0  0  0  0  0  0  0  0  0  0
   82.0395    0.5692   29.9293 H   0  0  0  0  0  0  0  0  0  0  0  0
 28 29  2  0
 28 27  1  0
 29 24  1  0
 27 26  2  0
  3 35  1  0
 24 23  1  0
 24 25  2  0
  5  1  1  0
  5  6  1  0
 33  4  2  0
 23 22  1  0
  1  4  1  0
  1 34  1  0
  4 32  1  0
  7  6  2  0
  7 39  1  0
 26 25  1  0
 34 35  1  0
 34 36  2  0
 32 31  2  0
 32 30  1  0
 31 14  1  0
  6 37  1  0
 36 30  1  0
 30 12  2  0
 14 22  1  0
 14 13  2  0
 22 15  1  0
 39  8  2  0
 12 13  1  0
 37 38  2  0
 15 18  2  0
 15 19  1  0
  8 38  1  0
  8 40  1  0
 44 45  2  0
 44  9  1  0
 45  2  1  0
 40 11  2  0
 40 43  1  0
 11 41  1  0
 19 16  2  0
 19 20  1  0
 16 21  1  0
  9 43  1  0
  9 46  2  0
 43 42  2  0
 41 10  2  0
  2 46  1  0
 42 10  1  0
 20 17  1  0
 21 17  2  0
  2 47  1  0
  3 48  1  0
  3 49  1  0
  3 50  1  0
  5 51  1  0
  5 52  1  0
  7 53  1  0
 10 54  1  0
 11 55  1  0
 12 56  1  0
 13 57  1  0
 16 58  1  0
 17 59  1  0
 21 60  1  0
 23 61  1  0
 23 62  1  0
 25 63  1  0
 26 64  1  0
 27 65  1  0
 28 66  1  0
 29 67  1  0
 31 68  1  0
 35 69  1  0
 35 70  1  0
 37 71  1  0
 38 72  1  0
 39 73  1  0
 41 74  1  0
 42 75  1  0
A    1
N1
A    2
N3
A    3
C4
A    4
C5
A    5
C6
A    6
C7
A    7
C8
A    8
C10
A    9
C13
A   10
C15
A   11
C17
A   12
C20
A   13
C21
A   14
C22
A   15
C24
A   16
C26
A   17
C28
A   18
O1
A   19
C25
A   20
S
A   21
C27
A   22
N6
A   23
C29
A   24
C30
A   25
C35
A   26
C34
A   27
C33
A   28
C32
A   29
C31
A   30
C1
A   31
C23
A   32
C
A   33
O
A   34
C2
A   35
C3
A   36
N
A   37
C19
A   38
C18
A   39
C9
A   40
C11
A   41
C16
A   42
C14
A   43
C12
A   44
N5
A   45
N4
A   46
N2
M  END
