5UNW_8F7_A_803
     RDKit          3D

 47 49  0  0  0  0  0  0  0  0999 V2000
    2.5440    5.3620   26.3300 N   0  0  0  0  0  0  0  0  0  0  0  0
    3.4920    4.6970   26.3970 C   0  0  0  0  0  0  0  0  0  0  0  0
    4.5260    3.9390   26.5120 C   0  0  0  0  0  0  0  0  0  0  0  0
    4.5340    3.0260   27.5570 C   0  0  0  0  0  0  0  0  0  0  0  0
    5.6130    2.1740   27.7410 C   0  0  0  0  0  0  0  0  0  0  0  0
    5.5430    1.2000   28.8970 C   0  0  0  0  0  0  0  0  0  0  0  0
    6.6790    0.2600   28.9160 N   0  0  0  0  0  0  0  0  0  0  0  0
    6.1740   -1.0820   28.5850 C   0  0  0  0  0  0  0  0  0  0  0  0
    5.6150    4.0110   25.6390 C   0  0  0  0  0  0  0  0  0  0  0  0
    6.7130    3.1650   25.8140 C   0  0  0  0  0  0  0  0  0  0  0  0
    6.7060    2.2420   26.8670 C   0  0  0  0  0  0  0  0  0  0  0  0
    7.8890    3.2490   24.8520 C   0  0  0  0  0  0  0  0  0  0  0  0
    9.2200    3.2230   25.6010 C   0  0  0  0  0  0  0  0  0  0  0  0
   10.3780    2.9600   24.6610 C   0  0  0  0  0  0  0  0  0  0  0  0
   11.2210    1.8660   24.8790 C   0  0  0  0  0  0  0  0  0  0  0  0
   10.6220    3.8170   23.5880 C   0  0  0  0  0  0  0  0  0  0  0  0
   11.6950    3.5640   22.7280 C   0  0  0  0  0  0  0  0  0  0  0  0
   12.5280    2.4650   22.9320 C   0  0  0  0  0  0  0  0  0  0  0  0
   13.5950    2.2090   22.0710 C   0  0  0  0  0  0  0  0  0  0  0  0
   13.8430    3.1090   20.9020 C   0  0  0  0  0  0  0  0  0  0  0  0
   14.4170    1.1110   22.3000 C   0  0  0  0  0  0  0  0  0  0  0  0
   14.1570    0.2810   23.4020 C   0  0  0  0  0  0  0  0  0  0  0  0
   14.9490   -0.7980   23.6350 N   0  0  0  0  0  0  0  0  0  0  0  0
   13.1100    0.5430   24.2320 N   0  0  0  0  0  0  0  0  0  0  0  0
   12.2960    1.6140   24.0230 C   0  0  0  0  0  0  0  0  0  0  0  0
    3.6773    2.9775   28.2453 H   0  0  0  0  0  0  0  0  0  0  0  0
    5.5413    1.7696   29.8380 H   0  0  0  0  0  0  0  0  0  0  0  0
    4.6231    0.6085   28.7791 H   0  0  0  0  0  0  0  0  0  0  0  0
    7.1069    0.2498   29.8528 H   0  0  0  0  0  0  0  0  0  0  0  0
    5.9660   -1.6347   29.5130 H   0  0  0  0  0  0  0  0  0  0  0  0
    5.2487   -0.9909   27.9973 H   0  0  0  0  0  0  0  0  0  0  0  0
    6.9298   -1.6235   27.9973 H   0  0  0  0  0  0  0  0  0  0  0  0
    5.6076    4.7359   24.8117 H   0  0  0  0  0  0  0  0  0  0  0  0
    7.5629    1.5670   27.0087 H   0  0  0  0  0  0  0  0  0  0  0  0
    7.8179    4.1857   24.2797 H   0  0  0  0  0  0  0  0  0  0  0  0
    7.8512    2.3791   24.1798 H   0  0  0  0  0  0  0  0  0  0  0  0
    9.1878    2.4279   26.3605 H   0  0  0  0  0  0  0  0  0  0  0  0
    9.3720    4.2058   26.0710 H   0  0  0  0  0  0  0  0  0  0  0  0
   11.0360    1.1974   25.7326 H   0  0  0  0  0  0  0  0  0  0  0  0
    9.9727    4.6887   23.4190 H   0  0  0  0  0  0  0  0  0  0  0  0
   11.8840    4.2398   21.8809 H   0  0  0  0  0  0  0  0  0  0  0  0
   14.1191    4.1109   21.2627 H   0  0  0  0  0  0  0  0  0  0  0  0
   14.6620    2.7004   20.2919 H   0  0  0  0  0  0  0  0  0  0  0  0
   12.9303    3.1775   20.2919 H   0  0  0  0  0  0  0  0  0  0  0  0
   15.2597    0.8956   21.6266 H   0  0  0  0  0  0  0  0  0  0  0  0
   15.1587   -1.0837   24.6021 H   0  0  0  0  0  0  0  0  0  0  0  0
   15.3397   -1.3303   22.8445 H   0  0  0  0  0  0  0  0  0  0  0  0
 20 19  1  0
 19 21  2  0
 19 18  1  0
 21 22  1  0
 17 18  2  0
 17 16  1  0
 18 25  1  0
 22 23  1  0
 22 24  2  0
 16 14  2  0
 25 24  1  0
 25 15  2  0
 14 15  1  0
 14 13  1  0
 12 13  1  0
 12 10  1  0
  9 10  1  0
  9  3  2  0
 10 11  2  0
  1  2  3  0
  2  3  1  0
  3  4  1  0
 11  5  1  0
  4  5  2  0
  5  6  1  0
  8  7  1  0
  6  7  1  0
  4 26  1  0
  6 27  1  0
  6 28  1  0
  7 29  1  0
  8 30  1  0
  8 31  1  0
  8 32  1  0
  9 33  1  0
 11 34  1  0
 12 35  1  0
 12 36  1  0
 13 37  1  0
 13 38  1  0
 15 39  1  0
 16 40  1  0
 17 41  1  0
 20 42  1  0
 20 43  1  0
 20 44  1  0
 21 45  1  0
 23 46  1  0
 23 47  1  0
A    1
N28
A    2
C27
A    3
C23
A    4
C24
A    5
C25
A    6
C29
A    7
N30
A    8
C31
A    9
C22
A   10
C21
A   11
C26
A   12
C13
A   13
C12
A   14
C08
A   15
C09
A   16
C07
A   17
C06
A   18
C05
A   19
C04
A   20
C11
A   21
C03
A   22
C02
A   23
N02
A   24
N01
A   25
C10
M  END
