5UNY_M4R_A_803
     RDKit          3D

 51 53  0  0  0  0  0  0  0  0999 V2000
    3.6290    6.6250   23.6220 N   0  0  0  0  0  0  0  0  0  0  0  0
    4.3190    5.9310   24.2470 C   0  0  0  0  0  0  0  0  0  0  0  0
    5.1300    5.2140   24.9440 C   0  0  0  0  0  0  0  0  0  0  0  0
    4.7110    4.6660   26.1580 C   0  0  0  0  0  0  0  0  0  0  0  0
    5.5960    3.8800   26.9010 C   0  0  0  0  0  0  0  0  0  0  0  0
    5.1820    3.2720   28.2290 C   0  0  0  0  0  0  0  0  0  0  0  0
    4.1980    2.1150   28.0660 C   0  0  0  0  0  0  0  0  0  0  0  0
    4.3730    1.3420   26.7570 C   0  0  0  0  0  0  0  0  0  0  0  0
    4.3980    1.2000   29.2060 N   0  0  0  0  0  0  0  0  0  0  0  0
    3.4950    0.0440   29.1000 C   0  0  0  0  0  0  0  0  0  0  0  0
    6.4220    4.9730   24.4800 C   0  0  0  0  0  0  0  0  0  0  0  0
    7.3000    4.1980   25.2250 C   0  0  0  0  0  0  0  0  0  0  0  0
    6.8890    3.6530   26.4310 C   0  0  0  0  0  0  0  0  0  0  0  0
    8.5590    3.9780   24.7550 O   0  0  0  0  0  0  0  0  0  0  0  0
    9.6350    3.6090   25.6100 C   0  0  0  0  0  0  0  0  0  0  0  0
   10.7710    3.2160   24.6980 C   0  0  0  0  0  0  0  0  0  0  0  0
   11.5480    2.0990   24.9860 C   0  0  0  0  0  0  0  0  0  0  0  0
   11.0150    3.9670   23.5530 C   0  0  0  0  0  0  0  0  0  0  0  0
   12.0490    3.6080   22.6980 C   0  0  0  0  0  0  0  0  0  0  0  0
   12.8330    2.4940   22.9810 C   0  0  0  0  0  0  0  0  0  0  0  0
   13.8670    2.1210   22.1280 C   0  0  0  0  0  0  0  0  0  0  0  0
   14.1460    2.9130   20.8710 C   0  0  0  0  0  0  0  0  0  0  0  0
   14.6370    1.0070   22.4450 C   0  0  0  0  0  0  0  0  0  0  0  0
   14.3540    0.2860   23.6100 C   0  0  0  0  0  0  0  0  0  0  0  0
   15.0940   -0.8070   23.9340 N   0  0  0  0  0  0  0  0  0  0  0  0
   13.3400    0.6690   24.4230 N   0  0  0  0  0  0  0  0  0  0  0  0
   12.5830    1.7460   24.1330 C   0  0  0  0  0  0  0  0  0  0  0  0
    3.6915    4.8516   26.5270 H   0  0  0  0  0  0  0  0  0  0  0  0
    6.0814    2.8996   28.7413 H   0  0  0  0  0  0  0  0  0  0  0  0
    4.6781    4.0574   28.8115 H   0  0  0  0  0  0  0  0  0  0  0  0
    3.1811    2.5335   28.0388 H   0  0  0  0  0  0  0  0  0  0  0  0
    4.6108    0.2915   26.9805 H   0  0  0  0  0  0  0  0  0  0  0  0
    3.4410    1.3911   26.1748 H   0  0  0  0  0  0  0  0  0  0  0  0
    5.1930    1.7877   26.1748 H   0  0  0  0  0  0  0  0  0  0  0  0
    5.3735    0.8695   29.2088 H   0  0  0  0  0  0  0  0  0  0  0  0
    3.2239   -0.3031   30.1080 H   0  0  0  0  0  0  0  0  0  0  0  0
    2.5851    0.3381   28.5564 H   0  0  0  0  0  0  0  0  0  0  0  0
    4.0007   -0.7676   28.5564 H   0  0  0  0  0  0  0  0  0  0  0  0
    6.7472    5.3988   23.5193 H   0  0  0  0  0  0  0  0  0  0  0  0
    7.5858    3.0386   27.0201 H   0  0  0  0  0  0  0  0  0  0  0  0
    9.3442    2.7604   26.2467 H   0  0  0  0  0  0  0  0  0  0  0  0
    9.9208    4.4341   26.2790 H   0  0  0  0  0  0  0  0  0  0  0  0
   11.3429    1.4991   25.8849 H   0  0  0  0  0  0  0  0  0  0  0  0
   10.3904    4.8433   23.3251 H   0  0  0  0  0  0  0  0  0  0  0  0
   12.2483    4.2052   21.7960 H   0  0  0  0  0  0  0  0  0  0  0  0
   14.5002    3.9185   21.1422 H   0  0  0  0  0  0  0  0  0  0  0  0
   14.9175    2.4000   20.2781 H   0  0  0  0  0  0  0  0  0  0  0  0
   13.2233    2.9968   20.2781 H   0  0  0  0  0  0  0  0  0  0  0  0
   15.4608    0.6958   21.7859 H   0  0  0  0  0  0  0  0  0  0  0  0
   15.2552   -1.0451   24.9231 H   0  0  0  0  0  0  0  0  0  0  0  0
   15.4936   -1.3972   23.1905 H   0  0  0  0  0  0  0  0  0  0  0  0
 22 21  1  0
 21 23  2  0
 21 20  1  0
 23 24  1  0
 19 20  2  0
 19 18  1  0
 20 27  1  0
 18 16  2  0
 24 25  1  0
 24 26  2  0
  1  2  3  0
 27 26  1  0
 27 17  2  0
  2  3  1  0
 11  3  2  0
 11 12  1  0
 16 17  1  0
 16 15  1  0
 14 12  1  0
 14 15  1  0
  3  4  1  0
 12 13  2  0
  4  5  2  0
 13  5  1  0
  8  7  1  0
  5  6  1  0
  7  6  1  0
  7  9  1  0
 10  9  1  0
  4 28  1  0
  6 29  1  0
  6 30  1  0
  7 31  1  0
  8 32  1  0
  8 33  1  0
  8 34  1  0
  9 35  1  0
 10 36  1  0
 10 37  1  0
 10 38  1  0
 11 39  1  0
 13 40  1  0
 15 41  1  0
 15 42  1  0
 17 43  1  0
 18 44  1  0
 19 45  1  0
 22 46  1  0
 22 47  1  0
 22 48  1  0
 23 49  1  0
 25 50  1  0
 25 51  1  0
A    1
N28
A    2
C27
A    3
C23
A    4
C24
A    5
C25
A    6
C29
A    7
C30
A    8
C31
A    9
N32
A   10
C33
A   11
C22
A   12
C21
A   13
C26
A   14
O13
A   15
C12
A   16
C08
A   17
C09
A   18
C07
A   19
C06
A   20
C05
A   21
C04
A   22
C11
A   23
C03
A   24
C02
A   25
N02
A   26
N01
A   27
C10
M  END
