5UOO_8FV_A_501
     RDKit          3D

 54 59  0  0  0  0  0  0  0  0999 V2000
   14.4140   -3.3480    5.7420 C   0  0  0  0  0  0  0  0  0  0  0  0
   14.6130   -4.7900    5.6130 C   0  0  0  0  0  0  0  0  0  0  0  0
   15.5760   -5.6430    6.0470 C   0  0  0  0  0  0  0  0  0  0  0  0
   15.1670   -6.9470    5.5650 C   0  0  0  0  0  0  0  0  0  0  0  0
   15.8780   -8.2290    5.7490 C   0  0  0  0  0  0  0  0  0  0  0  0
   21.8370   -2.5460    8.1300 N   0  0  0  0  0  0  0  0  0  0  0  0
   16.9000   -5.9350    8.1160 C   0  0  0  0  0  0  0  0  0  0  0  0
   16.1950   -7.7020    9.6650 C   0  0  0  0  0  0  0  0  0  0  0  0
   17.9830   -5.5810    8.9460 C   0  0  0  0  0  0  0  0  0  0  0  0
   18.8840   -4.6240    8.4800 C   0  0  0  0  0  0  0  0  0  0  0  0
   20.0930   -4.0880    9.0220 C   0  0  0  0  0  0  0  0  0  0  0  0
   20.6360   -3.2120    8.0200 C   0  0  0  0  0  0  0  0  0  0  0  0
   18.7200   -4.0360    7.1960 C   0  0  0  0  0  0  0  0  0  0  0  0
   20.8300   -4.2150   10.2190 C   0  0  0  0  0  0  0  0  0  0  0  0
   18.1390   -3.6580   11.6180 C   0  0  0  0  0  0  0  0  0  0  0  0
   16.9280   -3.5420   12.2070 C   0  0  0  0  0  0  0  0  0  0  0  0
   20.6170   -6.8080   12.9410 C   0  0  0  0  0  0  0  0  0  0  0  0
   18.6460   -5.5570   13.0920 C   0  0  0  0  0  0  0  0  0  0  0  0
   17.3600   -5.3990   13.7080 C   0  0  0  0  0  0  0  0  0  0  0  0
   16.5130   -4.4150   13.2600 C   0  0  0  0  0  0  0  0  0  0  0  0
   21.1050   -6.0040   11.8530 C   0  0  0  0  0  0  0  0  0  0  0  0
   14.0090   -6.8070    4.9050 N   0  0  0  0  0  0  0  0  0  0  0  0
   13.6630   -5.4950    4.9230 O   0  0  0  0  0  0  0  0  0  0  0  0
   16.7330   -5.3220    6.8430 C   0  0  0  0  0  0  0  0  0  0  0  0
   17.6560   -4.3650    6.3680 C   0  0  0  0  0  0  0  0  0  0  0  0
   19.7990   -3.1660    6.9280 N   0  0  0  0  0  0  0  0  0  0  0  0
   22.4830   -2.8190    9.3130 C   0  0  0  0  0  0  0  0  0  0  0  0
   23.8670   -2.2400    9.4370 C   0  0  0  0  0  0  0  0  0  0  0  0
   22.0410   -3.5970   10.3690 N   0  0  0  0  0  0  0  0  0  0  0  0
   15.9560   -6.8890    8.5220 O   0  0  0  0  0  0  0  0  0  0  0  0
   20.3330   -4.9630   11.3940 C   0  0  0  0  0  0  0  0  0  0  0  0
   19.4510   -6.6200   13.5530 N   0  0  0  0  0  0  0  0  0  0  0  0
   19.0490   -4.6870   12.0230 C   0  0  0  0  0  0  0  0  0  0  0  0
   14.3766   -3.0769    6.8074 H   0  0  0  0  0  0  0  0  0  0  0  0
   15.2475   -2.8181    5.2578 H   0  0  0  0  0  0  0  0  0  0  0  0
   13.4681   -3.0636    5.2578 H   0  0  0  0  0  0  0  0  0  0  0  0
   15.9918   -8.4342    6.8237 H   0  0  0  0  0  0  0  0  0  0  0  0
   15.3003   -9.0392    5.2802 H   0  0  0  0  0  0  0  0  0  0  0  0
   16.8712   -8.1680    5.2802 H   0  0  0  0  0  0  0  0  0  0  0  0
   16.0216   -7.1122   10.5772 H   0  0  0  0  0  0  0  0  0  0  0  0
   15.5124   -8.5645    9.6507 H   0  0  0  0  0  0  0  0  0  0  0  0
   17.2358   -8.0578    9.6507 H   0  0  0  0  0  0  0  0  0  0  0  0
   18.1138   -6.0467    9.9339 H   0  0  0  0  0  0  0  0  0  0  0  0
   18.4278   -2.9566   10.8214 H   0  0  0  0  0  0  0  0  0  0  0  0
   16.2418   -2.7528   11.8661 H   0  0  0  0  0  0  0  0  0  0  0  0
   21.2517   -7.6354   13.2912 H   0  0  0  0  0  0  0  0  0  0  0  0
   17.0549   -6.0604   14.5323 H   0  0  0  0  0  0  0  0  0  0  0  0
   15.5165   -4.2989   13.7110 H   0  0  0  0  0  0  0  0  0  0  0  0
   22.0817   -6.2188   11.3947 H   0  0  0  0  0  0  0  0  0  0  0  0
   17.5363   -3.8980    5.3793 H   0  0  0  0  0  0  0  0  0  0  0  0
   19.9344   -2.6030    6.0762 H   0  0  0  0  0  0  0  0  0  0  0  0
   24.1253   -2.1319   10.5008 H   0  0  0  0  0  0  0  0  0  0  0  0
   24.5901   -2.9110    8.9504 H   0  0  0  0  0  0  0  0  0  0  0  0
   23.8969   -1.2539    8.9504 H   0  0  0  0  0  0  0  0  0  0  0  0
 22 23  1  0
 22  4  2  0
 23  2  1  0
  4  5  1  0
  4  3  1  0
  2  1  1  0
  2  3  2  0
  3 24  1  0
 25 24  1  0
 25 13  2  0
 24  7  2  0
 26 13  1  0
 26 12  1  0
 13 10  1  0
 12  6  2  0
 12 11  1  0
  7 30  1  0
  7  9  1  0
  6 27  1  0
 10  9  2  0
 10 11  1  0
 30  8  1  0
 11 14  2  0
 27 28  1  0
 27 29  2  0
 14 29  1  0
 14 31  1  0
 31 21  2  0
 31 33  1  0
 15 33  2  0
 15 16  1  0
 21 17  1  0
 33 18  1  0
 16 20  2  0
 17 32  2  0
 18 32  1  0
 18 19  2  0
 20 19  1  0
  1 34  1  0
  1 35  1  0
  1 36  1  0
  5 37  1  0
  5 38  1  0
  5 39  1  0
  8 40  1  0
  8 41  1  0
  8 42  1  0
  9 43  1  0
 15 44  1  0
 16 45  1  0
 17 46  1  0
 19 47  1  0
 20 48  1  0
 21 49  1  0
 25 50  1  0
 26 51  1  0
 28 52  1  0
 28 53  1  0
 28 54  1  0
A    1
C1
A    2
C2
A    3
C3
A    4
C25
A    5
C26
A    6
N4
A    7
C5
A    8
C6
A    9
C7
A   10
C8
A   11
C11
A   12
C10
A   13
C9
A   14
C12
A   15
C15
A   16
C16
A   17
C20
A   18
C19
A   19
C18
A   20
C17
A   21
C21
A   22
N5
A   23
O2
A   24
C4
A   25
C24
A   26
N1
A   27
C22
A   28
C23
A   29
N3
A   30
O1
A   31
C13
A   32
N2
A   33
C14
M  END
