5UOP_8G4_A_409
     RDKit          3D

 64 70  0  0  0  0  0  0  0  0999 V2000
   38.2840  -41.1430   21.8930 F   0  0  0  0  0  0  0  0  0  0  0  0
   37.9670  -40.3780   19.0900 Cl  0  0  0  0  0  0  0  0  0  0  0  0
   33.4330  -36.4840   19.8890 C   0  0  0  0  0  0  0  0  0  0  0  0
   29.1460  -36.5340   19.8480 N   0  0  0  0  0  0  0  0  0  0  0  0
   29.1740  -36.3060   17.5770 O   0  0  0  0  0  0  0  0  0  0  0  0
   31.9740  -36.5180   19.9110 C   0  0  0  0  0  0  0  0  0  0  0  0
   27.6220  -36.6980   21.4550 N   0  0  0  0  0  0  0  0  0  0  0  0
   29.0030  -36.8530   23.2860 O   0  0  0  0  0  0  0  0  0  0  0  0
   31.1900  -36.6130   21.1390 C   0  0  0  0  0  0  0  0  0  0  0  0
   26.9160  -34.7870   23.5430 N   0  0  0  0  0  0  0  0  0  0  0  0
   31.9420  -36.6330   22.4420 C   0  0  0  0  0  0  0  0  0  0  0  0
   29.8460  -36.6290   21.0320 C   0  0  0  0  0  0  0  0  0  0  0  0
   29.7880  -36.4290   18.6280 C   0  0  0  0  0  0  0  0  0  0  0  0
   31.2300  -36.4390   18.6900 C   0  0  0  0  0  0  0  0  0  0  0  0
   27.6570  -36.5530   19.9790 C   0  0  0  0  0  0  0  0  0  0  0  0
   26.3620  -36.7910   22.1930 C   0  0  0  0  0  0  0  0  0  0  0  0
   25.8760  -35.4580   22.7500 C   0  0  0  0  0  0  0  0  0  0  0  0
   27.7130  -33.7530   23.0610 C   0  0  0  0  0  0  0  0  0  0  0  0
   37.5830  -39.9990   21.7320 C   0  0  0  0  0  0  0  0  0  0  0  0
   37.0940  -39.3490   22.8330 C   0  0  0  0  0  0  0  0  0  0  0  0
   36.4010  -38.1650   22.6540 C   0  0  0  0  0  0  0  0  0  0  0  0
   37.3920  -39.4990   20.4630 C   0  0  0  0  0  0  0  0  0  0  0  0
   36.7130  -38.3100   20.2910 C   0  0  0  0  0  0  0  0  0  0  0  0
   36.2030  -37.6270   21.3900 C   0  0  0  0  0  0  0  0  0  0  0  0
   35.4530  -36.3270   21.2260 C   0  0  0  0  0  0  0  0  0  0  0  0
   34.0030  -36.5020   21.1090 N   0  0  0  0  0  0  0  0  0  0  0  0
   34.0910  -36.4360   18.8640 O   0  0  0  0  0  0  0  0  0  0  0  0
   31.8500  -36.3770   17.4960 O   0  0  0  0  0  0  0  0  0  0  0  0
   27.1600  -37.7440   19.1110 C   0  0  0  0  0  0  0  0  0  0  0  0
   25.7970  -38.3550   19.1470 C   0  0  0  0  0  0  0  0  0  0  0  0
   26.0820  -37.2250   18.2180 C   0  0  0  0  0  0  0  0  0  0  0  0
   25.7170  -35.8210   18.6940 C   0  0  0  0  0  0  0  0  0  0  0  0
   26.9780  -35.3040   19.3830 C   0  0  0  0  0  0  0  0  0  0  0  0
   28.8370  -36.7420   22.0790 C   0  0  0  0  0  0  0  0  0  0  0  0
   33.3490  -37.1600   22.2430 C   0  0  0  0  0  0  0  0  0  0  0  0
   27.2180  -35.1400   24.8580 C   0  0  0  0  0  0  0  0  0  0  0  0
   26.6790  -36.0600   25.4680 O   0  0  0  0  0  0  0  0  0  0  0  0
   28.3210  -34.2370   25.3380 C   0  0  0  0  0  0  0  0  0  0  0  0
   28.6540  -33.3410   24.1590 C   0  0  0  0  0  0  0  0  0  0  0  0
   27.6300  -33.2880   21.9330 O   0  0  0  0  0  0  0  0  0  0  0  0
   31.9934  -35.6106   22.8445 H   0  0  0  0  0  0  0  0  0  0  0  0
   31.4135  -37.2947   23.1441 H   0  0  0  0  0  0  0  0  0  0  0  0
   25.5910  -37.1853   21.5147 H   0  0  0  0  0  0  0  0  0  0  0  0
   26.5427  -37.4514   23.0539 H   0  0  0  0  0  0  0  0  0  0  0  0
   25.5899  -34.8050   21.9123 H   0  0  0  0  0  0  0  0  0  0  0  0
   25.0171  -35.6549   23.4085 H   0  0  0  0  0  0  0  0  0  0  0  0
   37.2491  -39.7604   23.8413 H   0  0  0  0  0  0  0  0  0  0  0  0
   35.9984  -37.6389   23.5321 H   0  0  0  0  0  0  0  0  0  0  0  0
   36.5744  -37.9003   19.2796 H   0  0  0  0  0  0  0  0  0  0  0  0
   35.8181  -35.8262   20.3172 H   0  0  0  0  0  0  0  0  0  0  0  0
   35.6358  -35.7304   22.1319 H   0  0  0  0  0  0  0  0  0  0  0  0
   32.8342  -36.2786   17.4538 H   0  0  0  0  0  0  0  0  0  0  0  0
   28.1295  -38.2635   19.1228 H   0  0  0  0  0  0  0  0  0  0  0  0
   25.1470  -38.1983   20.0205 H   0  0  0  0  0  0  0  0  0  0  0  0
   25.3983  -39.3738   19.0329 H   0  0  0  0  0  0  0  0  0  0  0  0
   25.8778  -37.0947   17.1450 H   0  0  0  0  0  0  0  0  0  0  0  0
   25.4505  -35.1795   17.8411 H   0  0  0  0  0  0  0  0  0  0  0  0
   24.8468  -35.8233   19.3669 H   0  0  0  0  0  0  0  0  0  0  0  0
   27.6419  -34.8149   18.6550 H   0  0  0  0  0  0  0  0  0  0  0  0
   26.7460  -34.5556   20.1550 H   0  0  0  0  0  0  0  0  0  0  0  0
   33.3037  -38.2425   22.0530 H   0  0  0  0  0  0  0  0  0  0  0  0
   33.9322  -36.9512   23.1520 H   0  0  0  0  0  0  0  0  0  0  0  0
   28.7880  -34.2279   26.3339 H   0  0  0  0  0  0  0  0  0  0  0  0
   29.4225  -32.5551   24.1167 H   0  0  0  0  0  0  0  0  0  0  0  0
 28 14  1  0
  5 13  2  0
 31 32  1  0
 31 29  1  0
 31 30  1  0
 13 14  1  0
 13  4  1  0
 14  6  2  0
 32 33  1  0
 27  3  2  0
  2 22  1  0
 29 30  1  0
 29 15  1  0
 33 15  1  0
  4 15  1  0
  4 12  1  0
  3  6  1  0
  3 26  1  0
  6  9  1  0
 15  7  1  0
 23 22  1  0
 23 24  2  0
 22 19  2  0
 12  9  2  0
 12 34  1  0
 26 25  1  0
 26 35  1  0
  9 11  1  0
 25 24  1  0
 24 21  1  0
  7 34  1  0
  7 16  1  0
 19  1  1  0
 19 20  1  0
 40 18  2  0
 34  8  2  0
 16 17  1  0
 35 11  1  0
 21 20  2  0
 17 10  1  0
 18 10  1  0
 18 39  1  0
 10 36  1  0
 39 38  2  0
 36 38  1  0
 36 37  2  0
 11 41  1  0
 11 42  1  0
 16 43  1  0
 16 44  1  0
 17 45  1  0
 17 46  1  0
 20 47  1  0
 21 48  1  0
 23 49  1  0
 25 50  1  0
 25 51  1  0
 28 52  1  0
 29 53  1  0
 30 54  1  0
 30 55  1  0
 31 56  1  0
 32 57  1  0
 32 58  1  0
 33 59  1  0
 33 60  1  0
 35 61  1  0
 35 62  1  0
 38 63  1  0
 39 64  1  0
A    1
F
A    2
CL
A    3
C1
A    4
N1
A    5
O1
A    6
C2
A    7
N2
A    8
O2
A    9
C3
A   10
N3
A   11
C4
A   12
C5
A   13
C6
A   14
C7
A   15
C8
A   16
C10
A   17
C11
A   18
C12
A   19
C25
A   20
C24
A   21
C23
A   22
C26
A   23
C27
A   24
C22
A   25
C21
A   26
N
A   27
O5
A   28
O
A   29
C19
A   30
C20
A   31
C18
A   32
C17
A   33
C16
A   34
C9
A   35
C
A   36
C15
A   37
O3
A   38
C14
A   39
C13
A   40
O4
M  END
