1SXG_171_A_3256
     RDKit          3D

 24 24  0  0  0  0  0  0  0  0999 V2000
  134.9610  -12.0710   35.1560 C   0  0  0  0  0  0  0  0  0  0  0  0
  134.8810  -10.8470   35.8370 C   0  0  0  0  0  0  0  0  0  0  0  0
  135.8320   -9.8190   35.6290 C   0  0  0  0  0  0  0  0  0  0  0  0
  136.8960  -10.0180   34.7000 C   0  0  0  0  0  0  0  0  0  0  0  0
  135.7080   -8.6550   36.3190 N   0  0  0  0  0  0  0  0  0  0  0  0
  134.5620   -7.9240   35.8320 C   0  0  0  0  0  0  0  0  0  0  0  0
  134.1610   -6.5430   36.3700 C   0  0  0  0  0  0  0  0  0  0  0  0
  132.7900   -6.2940   35.3330 S   0  0  0  0  0  0  0  0  0  0  0  0
  132.1890   -4.9080   35.5620 O   0  0  0  0  0  0  0  0  0  0  0  0
  133.1900   -6.5240   33.8450 O   0  0  0  0  0  0  0  0  0  0  0  0
  131.7530   -7.3400   35.7330 O   0  0  0  0  0  0  0  0  0  0  0  0
  136.9660  -11.2570   34.0180 C   0  0  0  0  0  0  0  0  0  0  0  0
  136.0060  -12.2720   34.2370 C   0  0  0  0  0  0  0  0  0  0  0  0
  134.2177  -12.8612   35.3382 H   0  0  0  0  0  0  0  0  0  0  0  0
  134.0596  -10.6820   36.5498 H   0  0  0  0  0  0  0  0  0  0  0  0
  137.6420   -9.2303   34.5183 H   0  0  0  0  0  0  0  0  0  0  0  0
  136.3353   -8.3421   37.0737 H   0  0  0  0  0  0  0  0  0  0  0  0
  134.7225   -7.7935   34.7516 H   0  0  0  0  0  0  0  0  0  0  0  0
  133.7323   -8.5500   36.1922 H   0  0  0  0  0  0  0  0  0  0  0  0
  133.8830   -6.5714   37.4339 H   0  0  0  0  0  0  0  0  0  0  0  0
  134.9382   -5.7648   36.3503 H   0  0  0  0  0  0  0  0  0  0  0  0
  131.7010   -7.3924   36.7202 H   0  0  0  0  0  0  0  0  0  0  0  0
  137.7835  -11.4335   33.3035 H   0  0  0  0  0  0  0  0  0  0  0  0
  136.0770  -13.2218   33.6867 H   0  0  0  0  0  0  0  0  0  0  0  0
  1  2  2  0
  1 13  1  0
  2  3  1  0
  3  4  2  0
  3  5  1  0
  4 12  1  0
  5  6  1  0
  6  7  1  0
  7  8  1  0
  8  9  2  0
  8 10  2  0
  8 11  1  0
 12 13  2  0
  1 14  1  0
  2 15  1  0
  4 16  1  0
  5 17  1  0
  6 18  1  0
  6 19  1  0
  7 20  1  0
  7 21  1  0
 11 22  1  0
 12 23  1  0
 13 24  1  0
A    1
C3'
A    2
C2'
A    3
C1'
A    4
C6'
A    5
N
A    6
C1
A    7
C2
A    8
S
A    9
O1
A   10
O2
A   11
O3
A   12
C5'
A   13
C4'
M  END
