5UPF_8HV_A_901
     RDKit          3D

 57 60  0  0  0  0  0  0  0  0999 V2000
   15.4800    7.7940    1.7350 N   0  0  0  0  0  0  0  0  0  0  0  0
   15.2180    2.7730   -4.5380 C   0  0  0  0  0  0  0  0  0  0  0  0
   15.4400    3.9790   -3.6200 C   0  0  0  0  0  0  0  0  0  0  0  0
   14.8620    3.7170   -2.2250 C   0  0  0  0  0  0  0  0  0  0  0  0
   13.4020    3.2460   -2.3280 C   0  0  0  0  0  0  0  0  0  0  0  0
   13.2600    2.0800   -3.3020 C   0  0  0  0  0  0  0  0  0  0  0  0
   16.0670    4.8320   -0.3210 C   0  0  0  0  0  0  0  0  0  0  0  0
   14.6600    8.8130    2.1350 C   0  0  0  0  0  0  0  0  0  0  0  0
   15.3500    9.0300    5.6090 C   0  0  0  0  0  0  0  0  0  0  0  0
   15.1660    9.1630    8.0180 C   0  0  0  0  0  0  0  0  0  0  0  0
   14.2470    9.8710    5.4820 C   0  0  0  0  0  0  0  0  0  0  0  0
   14.0160   10.2320    4.0470 C   0  0  0  0  0  0  0  0  0  0  0  0
   14.3390    6.9940   -0.3440 C   0  0  0  0  0  0  0  0  0  0  0  0
   13.4340   10.4900    8.9490 F   0  0  0  0  0  0  0  0  0  0  0  0
   14.0670    9.9890    7.8440 C   0  0  0  0  0  0  0  0  0  0  0  0
   15.8010    8.6660    6.8800 C   0  0  0  0  0  0  0  0  0  0  0  0
   13.5880   10.3470    6.6100 C   0  0  0  0  0  0  0  0  0  0  0  0
   15.9110    8.7090    4.2510 C   0  0  0  0  0  0  0  0  0  0  0  0
   14.9600    9.3620    3.3440 N   0  0  0  0  0  0  0  0  0  0  0  0
   13.6380    9.1340    1.5400 O   0  0  0  0  0  0  0  0  0  0  0  0
   15.3270    6.9100    0.6390 C   0  0  0  0  0  0  0  0  0  0  0  0
   16.2210    5.8430    0.6090 C   0  0  0  0  0  0  0  0  0  0  0  0
   14.2140    5.9910   -1.2920 C   0  0  0  0  0  0  0  0  0  0  0  0
   15.0550    4.8780   -1.2750 C   0  0  0  0  0  0  0  0  0  0  0  0
   13.7900    2.4450   -4.6250 N   0  0  0  0  0  0  0  0  0  0  0  0
   13.1030    2.5290   -5.7810 C   0  0  0  0  0  0  0  0  0  0  0  0
   13.6500    2.8870   -6.8090 O   0  0  0  0  0  0  0  0  0  0  0  0
   11.6200    2.2010   -5.9860 C   0  0  0  0  0  0  0  0  0  0  0  0
   11.2140    1.0890   -5.1770 O   0  0  0  0  0  0  0  0  0  0  0  0
   10.7890    3.4210   -5.6040 C   0  0  0  0  0  0  0  0  0  0  0  0
   11.3870    1.8040   -7.4440 C   0  0  0  0  0  0  0  0  0  0  0  0
   16.3232    7.6499    2.3087 H   0  0  0  0  0  0  0  0  0  0  0  0
   15.7638    1.9070   -4.1353 H   0  0  0  0  0  0  0  0  0  0  0  0
   15.5865    3.0211   -5.5443 H   0  0  0  0  0  0  0  0  0  0  0  0
   16.5195    4.1713   -3.5324 H   0  0  0  0  0  0  0  0  0  0  0  0
   14.9289    4.8508   -4.0546 H   0  0  0  0  0  0  0  0  0  0  0  0
   15.4389    2.8971   -1.7722 H   0  0  0  0  0  0  0  0  0  0  0  0
   12.7800    4.0828   -2.6785 H   0  0  0  0  0  0  0  0  0  0  0  0
   13.0767    2.9074   -1.3332 H   0  0  0  0  0  0  0  0  0  0  0  0
   12.1964    1.8166   -3.3984 H   0  0  0  0  0  0  0  0  0  0  0  0
   13.8300    1.2224   -2.9151 H   0  0  0  0  0  0  0  0  0  0  0  0
   16.7570    3.9755   -0.3067 H   0  0  0  0  0  0  0  0  0  0  0  0
   15.5272    8.9066    9.0249 H   0  0  0  0  0  0  0  0  0  0  0  0
   13.3133   10.9666    3.6268 H   0  0  0  0  0  0  0  0  0  0  0  0
   13.6585    7.8580   -0.3660 H   0  0  0  0  0  0  0  0  0  0  0  0
   16.6591    7.9857    6.9836 H   0  0  0  0  0  0  0  0  0  0  0  0
   12.7041   10.9948    6.5148 H   0  0  0  0  0  0  0  0  0  0  0  0
   16.8111    8.1286    3.9999 H   0  0  0  0  0  0  0  0  0  0  0  0
   17.0527    5.8044    1.3279 H   0  0  0  0  0  0  0  0  0  0  0  0
   13.4402    6.0736   -2.0694 H   0  0  0  0  0  0  0  0  0  0  0  0
   11.3012    1.3278   -4.2202 H   0  0  0  0  0  0  0  0  0  0  0  0
   10.7354    3.4996   -4.5081 H   0  0  0  0  0  0  0  0  0  0  0  0
   11.2583    4.3274   -6.0141 H   0  0  0  0  0  0  0  0  0  0  0  0
    9.7737    3.3161   -6.0141 H   0  0  0  0  0  0  0  0  0  0  0  0
   10.8305    0.8559   -7.4814 H   0  0  0  0  0  0  0  0  0  0  0  0
   10.8068    2.5899   -7.9498 H   0  0  0  0  0  0  0  0  0  0  0  0
   12.3560    1.6806   -7.9498 H   0  0  0  0  0  0  0  0  0  0  0  0
 31 28  1  0
 27 26  2  0
 28 26  1  0
 28 30  1  0
 28 29  1  0
 26 25  1  0
 25  2  1  0
 25  6  1  0
  2  3  1  0
  3  4  1  0
  6  5  1  0
  5  4  1  0
  4 24  1  0
 23 24  1  0
 23 13  2  0
 24  7  2  0
 13 21  1  0
  7 22  1  0
 22 21  2  0
 21  1  1  0
 20  8  2  0
  1  8  1  0
  8 19  1  0
 19 12  1  0
 19 18  1  0
 12 11  2  0
 18  9  2  0
 11  9  1  0
 11 17  1  0
  9 16  1  0
 17 15  2  0
 16 10  2  0
 15 10  1  0
 15 14  1  0
  1 32  1  0
  2 33  1  0
  2 34  1  0
  3 35  1  0
  3 36  1  0
  4 37  1  0
  5 38  1  0
  5 39  1  0
  6 40  1  0
  6 41  1  0
  7 42  1  0
 10 43  1  0
 12 44  1  0
 13 45  1  0
 16 46  1  0
 17 47  1  0
 18 48  1  0
 22 49  1  0
 23 50  1  0
 29 51  1  0
 30 52  1  0
 30 53  1  0
 30 54  1  0
 31 55  1  0
 31 56  1  0
 31 57  1  0
A    1
N1
A    2
C4
A    3
C5
A    4
C6
A    5
C7
A    6
C8
A    7
C10
A    8
C13
A    9
C15
A   10
C17
A   11
C20
A   12
C21
A   13
C22
A   14
F
A   15
C18
A   16
C16
A   17
C19
A   18
C14
A   19
N2
A   20
O2
A   21
C12
A   22
C11
A   23
C23
A   24
C9
A   25
N
A   26
C3
A   27
O1
A   28
C1
A   29
O
A   30
C2
A   31
C
M  END
