5UPJ_UIN_B_100
     RDKit          3D

 47 49  0  0  0  0  0  0  0  0999 V2000
   -0.3130   18.0280   20.7550 C   0  0  0  0  0  0  0  0  0  0  0  0
   -1.4450   17.5700   21.4950 C   0  0  0  0  0  0  0  0  0  0  0  0
   -1.6890   16.3870   21.6060 O   0  0  0  0  0  0  0  0  0  0  0  0
   -2.3370   18.4270   22.0680 O   0  0  0  0  0  0  0  0  0  0  0  0
   -2.0880   19.7930   21.8820 C   0  0  0  0  0  0  0  0  0  0  0  0
   -0.9840   20.2990   21.1760 C   0  0  0  0  0  0  0  0  0  0  0  0
   -0.0940   19.3910   20.6050 C   0  0  0  0  0  0  0  0  0  0  0  0
    0.9880   19.7760   19.8770 O   0  0  0  0  0  0  0  0  0  0  0  0
    0.1850   16.4700   18.8470 C   0  0  0  0  0  0  0  0  0  0  0  0
   -0.1750   17.3160   17.7600 C   0  0  0  0  0  0  0  0  0  0  0  0
   -0.7070   16.7560   16.5960 C   0  0  0  0  0  0  0  0  0  0  0  0
   -0.8770   15.3680   16.4890 C   0  0  0  0  0  0  0  0  0  0  0  0
   -0.5250   14.5230   17.5560 C   0  0  0  0  0  0  0  0  0  0  0  0
    0.0130   15.0530   18.7300 C   0  0  0  0  0  0  0  0  0  0  0  0
    0.7060   17.0670   20.1320 C   0  0  0  0  0  0  0  0  0  0  0  0
    1.2990   16.0450   21.0860 C   0  0  0  0  0  0  0  0  0  0  0  0
    2.3750   16.5950   22.0140 C   0  0  0  0  0  0  0  0  0  0  0  0
   -3.1100   20.6730   22.5560 C   0  0  0  0  0  0  0  0  0  0  0  0
   -4.2070   21.2450   21.6890 C   0  0  0  0  0  0  0  0  0  0  0  0
   -3.8210   22.4020   20.7910 C   0  0  0  0  0  0  0  0  0  0  0  0
   -2.9190   22.0610   19.6040 C   0  0  0  0  0  0  0  0  0  0  0  0
   -1.4330   22.3770   19.7910 C   0  0  0  0  0  0  0  0  0  0  0  0
   -0.7770   21.7860   21.0160 C   0  0  0  0  0  0  0  0  0  0  0  0
    1.8144   20.0700   20.3361 H   0  0  0  0  0  0  0  0  0  0  0  0
   -0.0350   18.4044   17.8363 H   0  0  0  0  0  0  0  0  0  0  0  0
   -0.9944   17.4079   15.7579 H   0  0  0  0  0  0  0  0  0  0  0  0
   -1.2885   14.9377   15.5641 H   0  0  0  0  0  0  0  0  0  0  0  0
   -0.6745   13.4370   17.4651 H   0  0  0  0  0  0  0  0  0  0  0  0
    0.3021   14.3885   19.5575 H   0  0  0  0  0  0  0  0  0  0  0  0
    1.5767   17.6878   19.8741 H   0  0  0  0  0  0  0  0  0  0  0  0
    0.4849   15.6409   21.7057 H   0  0  0  0  0  0  0  0  0  0  0  0
    1.7855   15.2808   20.4621 H   0  0  0  0  0  0  0  0  0  0  0  0
    2.0715   16.4399   23.0599 H   0  0  0  0  0  0  0  0  0  0  0  0
    3.3239   16.0714   21.8261 H   0  0  0  0  0  0  0  0  0  0  0  0
    2.5064   17.6708   21.8261 H   0  0  0  0  0  0  0  0  0  0  0  0
   -3.5896   20.0775   23.3468 H   0  0  0  0  0  0  0  0  0  0  0  0
   -2.5430   21.5468   22.9096 H   0  0  0  0  0  0  0  0  0  0  0  0
   -4.5836   20.4346   21.0476 H   0  0  0  0  0  0  0  0  0  0  0  0
   -4.9500   21.6539   22.3895 H   0  0  0  0  0  0  0  0  0  0  0  0
   -4.7473   22.8424   20.3935 H   0  0  0  0  0  0  0  0  0  0  0  0
   -3.2322   23.0829   21.4233 H   0  0  0  0  0  0  0  0  0  0  0  0
   -3.0135   20.9832   19.4056 H   0  0  0  0  0  0  0  0  0  0  0  0
   -3.2601   22.6973   18.7740 H   0  0  0  0  0  0  0  0  0  0  0  0
   -0.8958   22.0012   18.9077 H   0  0  0  0  0  0  0  0  0  0  0  0
   -1.3773   23.4676   19.9232 H   0  0  0  0  0  0  0  0  0  0  0  0
   -1.1889   22.2885   21.9036 H   0  0  0  0  0  0  0  0  0  0  0  0
    0.3056   21.9424   20.8997 H   0  0  0  0  0  0  0  0  0  0  0  0
  1  2  1  0
  1  7  2  0
  1 15  1  0
  2  3  2  0
  2  4  1  0
  4  5  1  0
  5  6  2  0
  5 18  1  0
  6  7  1  0
  6 23  1  0
  7  8  1  0
  9 10  2  0
  9 14  1  0
  9 15  1  0
 10 11  1  0
 11 12  2  0
 12 13  1  0
 13 14  2  0
 15 16  1  0
 16 17  1  0
 18 19  1  0
 19 20  1  0
 20 21  1  0
 21 22  1  0
 22 23  1  0
  8 24  1  0
 10 25  1  0
 11 26  1  0
 12 27  1  0
 13 28  1  0
 14 29  1  0
 15 30  1  0
 16 31  1  0
 16 32  1  0
 17 33  1  0
 17 34  1  0
 17 35  1  0
 18 36  1  0
 18 37  1  0
 19 38  1  0
 19 39  1  0
 20 40  1  0
 20 41  1  0
 21 42  1  0
 21 43  1  0
 22 44  1  0
 22 45  1  0
 23 46  1  0
 23 47  1  0
A    1
CA
A    2
CA2
A    3
OA2
A    4
OA3
A    5
CA4
A    6
CA5
A    7
CA6
A    8
OA6
A    9
CB1
A   10
CB2
A   11
CB3
A   12
CB4
A   13
CB5
A   14
CB6
A   15
CG1
A   16
CG2
A   17
CG3
A   18
CD1
A   19
CD2
A   20
CD3
A   21
CD4
A   22
CD5
A   23
CD6
M  END
