5UQ0_WP1_A_801
     RDKit          3D

 27 28  0  0  0  0  0  0  0  0999 V2000
    6.7920   -1.4840   20.6740 C   0  0  0  0  0  0  0  0  0  0  0  0
    5.7800   -0.3730   20.8170 C   0  0  0  0  0  0  0  0  0  0  0  0
    4.3690   -0.9580   20.7280 C   0  0  0  0  0  0  0  0  0  0  0  0
    5.9440    0.3120   22.1950 C   0  0  0  0  0  0  0  0  0  0  0  0
    5.9830    0.5990   19.7430 O   0  0  0  0  0  0  0  0  0  0  0  0
    7.2050    0.1930   19.0970 C   0  0  0  0  0  0  0  0  0  0  0  0
    7.6800   -0.9700   19.5900 C   0  0  0  0  0  0  0  0  0  0  0  0
    8.8130   -1.5110   19.1370 C   0  0  0  0  0  0  0  0  0  0  0  0
    9.5280   -0.8590   18.1260 C   0  0  0  0  0  0  0  0  0  0  0  0
    9.0460    0.3410   17.5980 C   0  0  0  0  0  0  0  0  0  0  0  0
    7.8510    0.8370   18.1090 C   0  0  0  0  0  0  0  0  0  0  0  0
    7.3330    2.1270   17.5660 C   0  0  0  0  0  0  0  0  0  0  0  0
    7.9930    2.8190   16.7650 O   0  0  0  0  0  0  0  0  0  0  0  0
    6.1110    2.4900   18.0130 N   0  0  0  0  0  0  0  0  0  0  0  0
    6.3088   -2.4271   20.3791 H   0  0  0  0  0  0  0  0  0  0  0  0
    7.3261   -1.7153   21.6074 H   0  0  0  0  0  0  0  0  0  0  0  0
    3.9751   -1.1213   21.7420 H   0  0  0  0  0  0  0  0  0  0  0  0
    3.7147   -0.2570   20.1890 H   0  0  0  0  0  0  0  0  0  0  0  0
    4.4027   -1.9163   20.1890 H   0  0  0  0  0  0  0  0  0  0  0  0
    5.7678   -0.4238   22.9935 H   0  0  0  0  0  0  0  0  0  0  0  0
    6.9638    0.7142   22.2855 H   0  0  0  0  0  0  0  0  0  0  0  0
    5.2169    1.1325   22.2855 H   0  0  0  0  0  0  0  0  0  0  0  0
    9.1811   -2.4599   19.5542 H   0  0  0  0  0  0  0  0  0  0  0  0
   10.4668   -1.2902   17.7483 H   0  0  0  0  0  0  0  0  0  0  0  0
    9.5920    0.8749   16.8062 H   0  0  0  0  0  0  0  0  0  0  0  0
    5.9281    2.5443   19.0252 H   0  0  0  0  0  0  0  0  0  0  0  0
    5.3622    2.7124   17.3417 H   0  0  0  0  0  0  0  0  0  0  0  0
 10  9  2  0
 10 11  1  0
 13 12  2  0
  9  8  1  0
 12 11  1  0
 12 14  1  0
 11  6  2  0
  8  7  2  0
  6  7  1  0
  6  5  1  0
  7  1  1  0
  3  2  1  0
  5  2  1  0
  1  2  1  0
  2  4  1  0
  1 15  1  0
  1 16  1  0
  3 17  1  0
  3 18  1  0
  3 19  1  0
  4 20  1  0
  4 21  1  0
  4 22  1  0
  8 23  1  0
  9 24  1  0
 10 25  1  0
 14 26  1  0
 14 27  1  0
A    1
CAG
A    2
CAH
A    3
CAJ
A    4
CAK
A    5
OAI
A    6
CAC
A    7
CAB
A    8
CAA
A    9
CAF
A   10
CAE
A   11
CAD
A   12
CAL
A   13
OAN
A   14
NAM
M  END
