5UR3_8OY_A_201
     RDKit          3D

 59 62  0  0  0  0  0  0  0  0999 V2000
  -32.1250  -16.7600  -41.5890 O   0  0  0  0  0  0  0  0  0  0  0  0
  -30.9800  -16.7950  -41.4140 C   0  0  0  0  0  0  0  0  0  0  0  0
  -30.0370  -15.6210  -41.5140 C   0  0  0  0  0  0  0  0  0  0  0  0
  -28.7380  -15.8930  -41.3540 N   0  0  0  0  0  0  0  0  0  0  0  0
  -27.8420  -14.9630  -41.4050 C   0  0  0  0  0  0  0  0  0  0  0  0
  -26.3720  -15.2480  -41.2690 C   0  0  0  0  0  0  0  0  0  0  0  0
  -25.6390  -15.1650  -42.6410 C   0  0  0  0  0  0  0  0  0  0  0  0
  -24.3730  -15.9760  -42.4910 C   0  0  0  0  0  0  0  0  0  0  0  0
  -23.5450  -16.1000  -43.7650 C   0  0  0  0  0  0  0  0  0  0  0  0
  -24.3150  -16.2030  -45.0560 C   0  0  0  0  0  0  0  0  0  0  0  0
  -25.7020  -15.5990  -45.1420 C   0  0  0  0  0  0  0  0  0  0  0  0
  -26.4580  -15.6360  -43.8000 C   0  0  0  0  0  0  0  0  0  0  0  0
  -28.2540  -13.6590  -41.5450 C   0  0  0  0  0  0  0  0  0  0  0  0
  -29.5720  -13.3740  -41.6980 C   0  0  0  0  0  0  0  0  0  0  0  0
  -30.5230  -14.3550  -41.6870 C   0  0  0  0  0  0  0  0  0  0  0  0
  -30.2800  -17.9290  -40.9340 N   0  0  0  0  0  0  0  0  0  0  0  0
  -30.8360  -19.2320  -40.6250 C   0  0  0  0  0  0  0  0  0  0  0  0
  -32.1000  -19.5990  -41.0260 C   0  0  0  0  0  0  0  0  0  0  0  0
  -32.5890  -20.8360  -40.7140 C   0  0  0  0  0  0  0  0  0  0  0  0
  -31.8410  -21.6840  -39.9200 C   0  0  0  0  0  0  0  0  0  0  0  0
  -32.4170  -23.0580  -39.5500 C   0  0  0  0  0  0  0  0  0  0  0  0
  -33.5610  -23.4210  -39.8770 O   0  0  0  0  0  0  0  0  0  0  0  0
  -31.7340  -23.8270  -38.8840 O   0  0  0  0  0  0  0  0  0  0  0  0
  -30.5970  -21.3020  -39.4590 C   0  0  0  0  0  0  0  0  0  0  0  0
  -30.0810  -20.0600  -39.8250 C   0  0  0  0  0  0  0  0  0  0  0  0
  -28.7750  -19.6770  -39.3370 N   0  0  0  0  0  0  0  0  0  0  0  0
  -27.6120  -19.5950  -40.1780 C   0  0  0  0  0  0  0  0  0  0  0  0
  -27.7440  -19.6700  -41.5380 C   0  0  0  0  0  0  0  0  0  0  0  0
  -26.6420  -19.6090  -42.4070 C   0  0  0  0  0  0  0  0  0  0  0  0
  -25.4050  -19.4600  -41.8160 C   0  0  0  0  0  0  0  0  0  0  0  0
  -25.2980  -19.3760  -40.4490 C   0  0  0  0  0  0  0  0  0  0  0  0
  -26.3830  -19.4430  -39.5910 C   0  0  0  0  0  0  0  0  0  0  0  0
  -26.2418  -16.2592  -40.8560 H   0  0  0  0  0  0  0  0  0  0  0  0
  -25.9364  -14.4900  -40.6014 H   0  0  0  0  0  0  0  0  0  0  0  0
  -25.4291  -14.1119  -42.8795 H   0  0  0  0  0  0  0  0  0  0  0  0
  -24.6508  -16.9883  -42.1623 H   0  0  0  0  0  0  0  0  0  0  0  0
  -23.7455  -15.4429  -41.7616 H   0  0  0  0  0  0  0  0  0  0  0  0
  -22.9227  -17.0024  -43.6734 H   0  0  0  0  0  0  0  0  0  0  0  0
  -22.9769  -15.1609  -43.8373 H   0  0  0  0  0  0  0  0  0  0  0  0
  -24.4167  -17.2742  -45.2845 H   0  0  0  0  0  0  0  0  0  0  0  0
  -23.7239  -15.5999  -45.7609 H   0  0  0  0  0  0  0  0  0  0  0  0
  -25.6089  -14.5511  -45.4633 H   0  0  0  0  0  0  0  0  0  0  0  0
  -26.2785  -16.1989  -45.8615 H   0  0  0  0  0  0  0  0  0  0  0  0
  -27.3464  -14.9926  -43.8829 H   0  0  0  0  0  0  0  0  0  0  0  0
  -26.7204  -16.6863  -43.6052 H   0  0  0  0  0  0  0  0  0  0  0  0
  -27.5141  -12.8451  -41.5330 H   0  0  0  0  0  0  0  0  0  0  0  0
  -29.8823  -12.3275  -41.8342 H   0  0  0  0  0  0  0  0  0  0  0  0
  -31.5955  -14.1428  -41.8079 H   0  0  0  0  0  0  0  0  0  0  0  0
  -29.2666  -17.8158  -40.7888 H   0  0  0  0  0  0  0  0  0  0  0  0
  -32.7191  -18.8938  -41.5999 H   0  0  0  0  0  0  0  0  0  0  0  0
  -33.5715  -21.1546  -41.0923 H   0  0  0  0  0  0  0  0  0  0  0  0
  -31.7675  -23.7892  -37.8953 H   0  0  0  0  0  0  0  0  0  0  0  0
  -30.0174  -21.9728  -38.8077 H   0  0  0  0  0  0  0  0  0  0  0  0
  -28.6728  -19.4517  -38.3371 H   0  0  0  0  0  0  0  0  0  0  0  0
  -28.7507  -19.7823  -41.9668 H   0  0  0  0  0  0  0  0  0  0  0  0
  -26.7593  -19.6764  -43.4986 H   0  0  0  0  0  0  0  0  0  0  0  0
  -24.5013  -19.4083  -42.4410 H   0  0  0  0  0  0  0  0  0  0  0  0
  -24.2964  -19.2486  -40.0123 H   0  0  0  0  0  0  0  0  0  0  0  0
  -26.2649  -19.3779  -38.4993 H   0  0  0  0  0  0  0  0  0  0  0  0
 11 10  1  0
 11 12  1  0
 10  9  1  0
 12  7  1  0
  9  8  1  0
  7  8  1  0
  7  6  1  0
 29 30  1  0
 29 28  2  0
 30 31  2  0
 14 15  2  0
 14 13  1  0
 15  3  1  0
  1  2  2  0
 13  5  2  0
 28 27  1  0
  3  2  1  0
  3  4  2  0
  2 16  1  0
  5  4  1  0
  5  6  1  0
 18 19  2  0
 18 17  1  0
 16 17  1  0
 19 20  1  0
 17 25  2  0
 31 32  1  0
 27 32  2  0
 27 26  1  0
 20 21  1  0
 20 24  2  0
 22 21  2  0
 25 24  1  0
 25 26  1  0
 21 23  1  0
  6 33  1  0
  6 34  1  0
  7 35  1  0
  8 36  1  0
  8 37  1  0
  9 38  1  0
  9 39  1  0
 10 40  1  0
 10 41  1  0
 11 42  1  0
 11 43  1  0
 12 44  1  0
 12 45  1  0
 13 46  1  0
 14 47  1  0
 15 48  1  0
 16 49  1  0
 18 50  1  0
 19 51  1  0
 23 52  1  0
 24 53  1  0
 26 54  1  0
 28 55  1  0
 29 56  1  0
 30 57  1  0
 31 58  1  0
 32 59  1  0
A    1
O01
A    2
C02
A    3
C03
A    4
N04
A    5
C05
A    6
C06
A    7
C07
A    8
C08
A    9
C09
A   10
C10
A   11
C11
A   12
C12
A   13
C13
A   14
C14
A   15
C15
A   16
N16
A   17
C17
A   18
C18
A   19
C19
A   20
C20
A   21
C21
A   22
O22
A   23
O23
A   24
C24
A   25
C25
A   26
N26
A   27
C27
A   28
C28
A   29
C29
A   30
C30
A   31
C31
A   32
C32
M  END
