5UR9_8KS_A_201
     RDKit          3D

 54 58  0  0  0  0  0  0  0  0999 V2000
   10.5025    4.5956   -8.1564 C   0  0  0  0  0  0  0  0  0  0  0  0
   13.1263    5.5585  -10.6015 C   0  0  0  0  0  0  0  0  0  0  0  0
   14.1976    5.1643  -11.3969 C   0  0  0  0  0  0  0  0  0  0  0  0
   12.1816    3.0070   -7.3683 O   0  0  0  0  0  0  0  0  0  0  0  0
   12.6693    1.7256   -7.2741 C   0  0  0  0  0  0  0  0  0  0  0  0
    7.5115    5.7597  -11.1806 O   0  0  0  0  0  0  0  0  0  0  0  0
    8.6598    6.0104  -10.7756 C   0  0  0  0  0  0  0  0  0  0  0  0
    9.2733    7.0687  -10.9856 O   0  0  0  0  0  0  0  0  0  0  0  0
    9.3906    4.9289   -9.9670 C   0  0  0  0  0  0  0  0  0  0  0  0
   10.8359    5.3284   -9.5369 C   0  0  0  0  0  0  0  0  0  0  0  0
   11.9543    4.8236  -10.4295 C   0  0  0  0  0  0  0  0  0  0  0  0
   11.8940    3.6163  -11.1499 C   0  0  0  0  0  0  0  0  0  0  0  0
   12.9708    3.2042  -11.9706 C   0  0  0  0  0  0  0  0  0  0  0  0
   14.1215    3.9844  -12.1069 C   0  0  0  0  0  0  0  0  0  0  0  0
   10.9619    3.2261   -8.0042 C   0  0  0  0  0  0  0  0  0  0  0  0
   10.4849    2.2730   -8.6276 O   0  0  0  0  0  0  0  0  0  0  0  0
   12.0625    0.7649   -6.4699 C   0  0  0  0  0  0  0  0  0  0  0  0
   12.5933   -0.5375   -6.3730 C   0  0  0  0  0  0  0  0  0  0  0  0
   13.7147   -0.8879   -7.0646 C   0  0  0  0  0  0  0  0  0  0  0  0
   14.3747    0.0839   -7.9120 C   0  0  0  0  0  0  0  0  0  0  0  0
   15.5449   -0.2618   -8.6374 C   0  0  0  0  0  0  0  0  0  0  0  0
   16.1853    0.6194   -9.4494 C   0  0  0  0  0  0  0  0  0  0  0  0
   15.6983    1.9314   -9.5617 C   0  0  0  0  0  0  0  0  0  0  0  0
   14.5690    2.3047   -8.8775 C   0  0  0  0  0  0  0  0  0  0  0  0
   13.8633    1.3897   -8.0189 C   0  0  0  0  0  0  0  0  0  0  0  0
    8.9843    4.8473   -8.4463 C   0  0  0  0  0  0  0  0  0  0  0  0
    8.4368    6.0629   -7.7886 C   0  0  0  0  0  0  0  0  0  0  0  0
    7.0948    6.1701   -7.3888 C   0  0  0  0  0  0  0  0  0  0  0  0
    6.6246    7.3341   -6.7689 C   0  0  0  0  0  0  0  0  0  0  0  0
    7.4778    8.4249   -6.5083 C   0  0  0  0  0  0  0  0  0  0  0  0
    8.8228    8.3340   -6.8823 C   0  0  0  0  0  0  0  0  0  0  0  0
    9.2645    7.1655   -7.5047 C   0  0  0  0  0  0  0  0  0  0  0  0
   10.9501    4.9214   -7.2058 H   0  0  0  0  0  0  0  0  0  0  0  0
   13.2101    6.5183  -10.0706 H   0  0  0  0  0  0  0  0  0  0  0  0
   15.1001    5.7901  -11.4591 H   0  0  0  0  0  0  0  0  0  0  0  0
    9.5907    7.6163  -10.2243 H   0  0  0  0  0  0  0  0  0  0  0  0
    9.2096    4.0757  -10.6373 H   0  0  0  0  0  0  0  0  0  0  0  0
   11.2267    6.3566   -9.5368 H   0  0  0  0  0  0  0  0  0  0  0  0
   10.9972    2.9839  -11.0741 H   0  0  0  0  0  0  0  0  0  0  0  0
   12.9002    2.2496  -12.5125 H   0  0  0  0  0  0  0  0  0  0  0  0
   14.9450    3.6662  -12.7631 H   0  0  0  0  0  0  0  0  0  0  0  0
   11.1569    1.0255   -5.9025 H   0  0  0  0  0  0  0  0  0  0  0  0
   12.0965   -1.2802   -5.7314 H   0  0  0  0  0  0  0  0  0  0  0  0
   14.1179   -1.9077   -6.9792 H   0  0  0  0  0  0  0  0  0  0  0  0
   15.9480   -1.2805   -8.5385 H   0  0  0  0  0  0  0  0  0  0  0  0
   17.0768    0.3079  -10.0134 H   0  0  0  0  0  0  0  0  0  0  0  0
   16.2220    2.6600  -10.1981 H   0  0  0  0  0  0  0  0  0  0  0  0
   14.1922    3.3322   -8.9882 H   0  0  0  0  0  0  0  0  0  0  0  0
    8.1723    4.1773   -8.1275 H   0  0  0  0  0  0  0  0  0  0  0  0
    6.4059    5.3308   -7.5645 H   0  0  0  0  0  0  0  0  0  0  0  0
    5.5655    7.3986   -6.4788 H   0  0  0  0  0  0  0  0  0  0  0  0
    7.0930    9.3320   -6.0193 H   0  0  0  0  0  0  0  0  0  0  0  0
    9.5170    9.1653   -6.6900 H   0  0  0  0  0  0  0  0  0  0  0  0
   10.3247    7.1023   -7.7910 H   0  0  0  0  0  0  0  0  0  0  0  0
 14 13  2  0
 14  3  1  0
 13 12  1  0
  3  2  2  0
  6  7  2  0
 12 11  2  0
  8  7  1  0
  7  9  1  0
  2 11  1  0
 11 10  1  0
  9 10  1  0
  9 26  1  0
 23 22  2  0
 23 24  1  0
 10  1  1  0
 22 21  1  0
 24 25  2  0
 21 20  2  0
 16 15  2  0
 26  1  1  0
 26 27  1  0
  1 15  1  0
 25 20  1  0
 25  5  1  0
 15  4  1  0
 20 19  1  0
 27 32  1  0
 27 28  2  0
 32 31  2  0
 28 29  1  0
  4  5  1  0
  5 17  2  0
 19 18  2  0
 31 30  1  0
 29 30  2  0
 17 18  1  0
  1 33  1  0
  2 34  1  0
  3 35  1  0
  8 36  1  0
  9 37  1  0
 10 38  1  0
 12 39  1  0
 13 40  1  0
 14 41  1  0
 17 42  1  0
 18 43  1  0
 19 44  1  0
 21 45  1  0
 22 46  1  0
 23 47  1  0
 24 48  1  0
 26 49  1  0
 28 50  1  0
 29 51  1  0
 30 52  1  0
 31 53  1  0
 32 54  1  0
A    1
C12
A    2
C11
A    3
C10
A    4
O15
A    5
C16
A    6
O01
A    7
C02
A    8
O03
A    9
C04
A   10
C05
A   11
C06
A   12
C07
A   13
C08
A   14
C09
A   15
C13
A   16
O14
A   17
C17
A   18
C18
A   19
C19
A   20
C20
A   21
C21
A   22
C22
A   23
C23
A   24
C24
A   25
C25
A   26
C26
A   27
C27
A   28
C28
A   29
C29
A   30
C30
A   31
C31
A   32
C32
M  END
