5URJ_8LS_A_2202
     RDKit          3D

 62 67  0  0  0  0  0  0  0  0999 V2000
  -88.7800  -15.3510  162.1700 C   0  0  0  0  0  0  0  0  0  0  0  0
  -87.6330  -15.9600  162.9300 C   0  0  0  0  0  0  0  0  0  0  0  0
  -87.3970  -17.3780  162.3720 C   0  0  0  0  0  0  0  0  0  0  0  0
  -88.7190  -18.1170  162.5900 C   0  0  0  0  0  0  0  0  0  0  0  0
  -90.7510  -15.6650  160.8810 C   0  0  0  0  0  0  0  0  0  0  0  0
  -92.0130  -13.9960  159.9630 N   0  0  0  0  0  0  0  0  0  0  0  0
  -93.3710  -14.2710  160.4610 C   0  0  0  0  0  0  0  0  0  0  0  0
  -95.7500  -14.4450  159.7610 C   0  0  0  0  0  0  0  0  0  0  0  0
  -98.1050  -14.7410  159.1610 C   0  0  0  0  0  0  0  0  0  0  0  0
  -99.6750  -17.9830  157.9830 C   0  0  0  0  0  0  0  0  0  0  0  0
  -98.6420  -18.8820  158.1550 C   0  0  0  0  0  0  0  0  0  0  0  0
  -97.4300  -18.4480  158.6430 C   0  0  0  0  0  0  0  0  0  0  0  0
  -96.4840  -13.8410  157.5940 C   0  0  0  0  0  0  0  0  0  0  0  0
  -95.1790  -13.4670  157.2390 C   0  0  0  0  0  0  0  0  0  0  0  0
  -90.1160  -11.9370  161.1640 C   0  0  0  0  0  0  0  0  0  0  0  0
  -89.9730  -13.4320  161.3130 C   0  0  0  0  0  0  0  0  0  0  0  0
  -88.9140  -13.9720  162.0350 C   0  0  0  0  0  0  0  0  0  0  0  0
  -89.6460  -17.5460  161.6750 O   0  0  0  0  0  0  0  0  0  0  0  0
  -89.7040  -16.1940  161.5920 C   0  0  0  0  0  0  0  0  0  0  0  0
  -90.9040  -14.3050  160.7460 C   0  0  0  0  0  0  0  0  0  0  0  0
  -94.4860  -14.1120  159.4540 C   0  0  0  0  0  0  0  0  0  0  0  0
  -96.7410  -14.3220  158.8300 N   0  0  0  0  0  0  0  0  0  0  0  0
  -98.2920  -16.2050  158.8020 C   0  0  0  0  0  0  0  0  0  0  0  0
  -99.5020  -16.6520  158.3060 C   0  0  0  0  0  0  0  0  0  0  0  0
  -97.2650  -17.1150  158.9620 C   0  0  0  0  0  0  0  0  0  0  0  0
  -97.3940  -13.7440  156.7790 O   0  0  0  0  0  0  0  0  0  0  0  0
  -94.1630  -13.5990  158.1710 C   0  0  0  0  0  0  0  0  0  0  0  0
  -92.8490  -13.2880  157.8610 N   0  0  0  0  0  0  0  0  0  0  0  0
  -91.8360  -13.5390  158.7030 C   0  0  0  0  0  0  0  0  0  0  0  0
  -90.7040  -13.3140  158.3200 O   0  0  0  0  0  0  0  0  0  0  0  0
  -88.6750  -19.6080  162.3680 C   0  0  0  0  0  0  0  0  0  0  0  0
  -88.0770  -20.1320  161.3190 N   0  0  0  0  0  0  0  0  0  0  0  0
  -88.0560  -21.4390  161.1110 C   0  0  0  0  0  0  0  0  0  0  0  0
  -88.6650  -22.3160  161.9850 C   0  0  0  0  0  0  0  0  0  0  0  0
  -89.3110  -21.8020  163.0960 C   0  0  0  0  0  0  0  0  0  0  0  0
  -89.3170  -20.4250  163.2790 C   0  0  0  0  0  0  0  0  0  0  0  0
  -89.9400  -19.8830  164.3490 F   0  0  0  0  0  0  0  0  0  0  0  0
  -86.7282  -15.3493  162.7945 H   0  0  0  0  0  0  0  0  0  0  0  0
  -87.8645  -16.0038  164.0045 H   0  0  0  0  0  0  0  0  0  0  0  0
  -86.5815  -17.8765  162.9165 H   0  0  0  0  0  0  0  0  0  0  0  0
  -87.1045  -17.3604  161.3117 H   0  0  0  0  0  0  0  0  0  0  0  0
  -88.9929  -17.9987  163.6488 H   0  0  0  0  0  0  0  0  0  0  0  0
  -91.4809  -16.3403  160.4107 H   0  0  0  0  0  0  0  0  0  0  0  0
  -93.5699  -13.5831  161.2960 H   0  0  0  0  0  0  0  0  0  0  0  0
  -93.3751  -15.3336  160.7456 H   0  0  0  0  0  0  0  0  0  0  0  0
  -95.9883  -14.8188  160.7677 H   0  0  0  0  0  0  0  0  0  0  0  0
  -98.8229  -14.1307  158.5934 H   0  0  0  0  0  0  0  0  0  0  0  0
  -98.2763  -14.6055  160.2391 H   0  0  0  0  0  0  0  0  0  0  0  0
 -100.6410  -18.3288  157.5865 H   0  0  0  0  0  0  0  0  0  0  0  0
  -98.7867  -19.9429  157.9028 H   0  0  0  0  0  0  0  0  0  0  0  0
  -96.6001  -19.1574  158.7776 H   0  0  0  0  0  0  0  0  0  0  0  0
  -94.8963  -14.0744  156.3666 H   0  0  0  0  0  0  0  0  0  0  0  0
  -95.2510  -12.3808  157.0812 H   0  0  0  0  0  0  0  0  0  0  0  0
  -90.1605  -11.4719  162.1598 H   0  0  0  0  0  0  0  0  0  0  0  0
  -89.2518  -11.5392  160.6118 H   0  0  0  0  0  0  0  0  0  0  0  0
  -91.0399  -11.7103  160.6118 H   0  0  0  0  0  0  0  0  0  0  0  0
  -88.1762  -13.3039  162.5032 H   0  0  0  0  0  0  0  0  0  0  0  0
 -100.3319  -15.9433  158.1678 H   0  0  0  0  0  0  0  0  0  0  0  0
  -96.2958  -16.7704  159.3516 H   0  0  0  0  0  0  0  0  0  0  0  0
  -87.5421  -21.8345  160.2225 H   0  0  0  0  0  0  0  0  0  0  0  0
  -88.6377  -23.4004  161.8027 H   0  0  0  0  0  0  0  0  0  0  0  0
  -89.8078  -22.4680  163.8168 H   0  0  0  0  0  0  0  0  0  0  0  0
 26 13  2  0
 14 13  1  0
 14 27  1  0
 13 22  1  0
 28 27  2  0
 28 29  1  0
 10 11  2  0
 10 24  1  0
 11 12  1  0
 27 21  1  0
 24 23  2  0
 30 29  2  0
 12 25  2  0
 29  6  1  0
 23 25  1  0
 23  9  1  0
 22  9  1  0
 22  8  1  0
 21  8  2  0
 21  7  1  0
  6  7  1  0
  6 20  1  0
 20  5  1  0
 20 16  2  0
  5 19  2  0
 33 32  2  0
 33 34  1  0
 15 16  1  0
 16 17  1  0
 32 31  1  0
 19 18  1  0
 19  1  1  0
 18  4  1  0
 34 35  2  0
 17  1  2  0
  1  2  1  0
 31  4  1  0
 31 36  2  0
  3  4  1  0
  3  2  1  0
 35 36  1  0
 36 37  1  0
  2 38  1  0
  2 39  1  0
  3 40  1  0
  3 41  1  0
  4 42  1  0
  5 43  1  0
  7 44  1  0
  7 45  1  0
  8 46  1  0
  9 47  1  0
  9 48  1  0
 10 49  1  0
 11 50  1  0
 12 51  1  0
 14 52  1  0
 14 53  1  0
 15 54  1  0
 15 55  1  0
 15 56  1  0
 17 57  1  0
 24 58  1  0
 25 59  1  0
 33 60  1  0
 34 61  1  0
 35 62  1  0
A    1
C4
A    2
C5
A    3
C6
A    4
C7
A    5
C10
A    6
N12
A    7
C13
A    8
C15
A    9
C17
A   10
C20
A   11
C21
A   12
C22
A   13
C24
A   14
C26
A   15
C1
A   16
C2
A   17
C3
A   18
O8
A   19
C9
A   20
C11
A   21
C14
A   22
N16
A   23
C18
A   24
C19
A   25
C23
A   26
O25
A   27
C27
A   28
N28
A   29
C29
A   30
O30
A   31
C31
A   32
N32
A   33
C33
A   34
C34
A   35
C35
A   36
C36
A   37
F37
M  END
