5USQ_8LY_A_500
     RDKit          3D

 53 57  0  0  0  0  0  0  0  0999 V2000
   11.8190   65.4710    3.8960 C   0  0  0  0  0  0  0  0  0  0  0  0
   11.3540   66.2900    4.9230 C   0  0  0  0  0  0  0  0  0  0  0  0
   12.2170   67.1150    5.6180 C   0  0  0  0  0  0  0  0  0  0  0  0
   13.5800   67.1260    5.3000 C   0  0  0  0  0  0  0  0  0  0  0  0
   15.5310   68.6650    5.4250 C   0  0  0  0  0  0  0  0  0  0  0  0
   17.4330   70.1680    5.4910 N   0  0  0  0  0  0  0  0  0  0  0  0
   17.4510   70.7210    4.2080 C   0  0  0  0  0  0  0  0  0  0  0  0
   16.4930   71.4200    2.0940 C   0  0  0  0  0  0  0  0  0  0  0  0
   18.7860   71.8210    2.3700 C   0  0  0  0  0  0  0  0  0  0  0  0
   22.2270   72.1270    3.5120 C   0  0  0  0  0  0  0  0  0  0  0  0
   22.5970   72.1260    5.0100 C   0  0  0  0  0  0  0  0  0  0  0  0
   24.1270   72.2080    5.1710 C   0  0  0  0  0  0  0  0  0  0  0  0
   21.9020   73.2520    5.8040 C   0  0  0  0  0  0  0  0  0  0  0  0
   18.7300   71.2270    3.7150 C   0  0  0  0  0  0  0  0  0  0  0  0
   15.3440   66.2720    3.8950 F   0  0  0  0  0  0  0  0  0  0  0  0
   14.0440   66.2990    4.2480 C   0  0  0  0  0  0  0  0  0  0  0  0
   13.1630   65.4750    3.5540 C   0  0  0  0  0  0  0  0  0  0  0  0
    9.6800   66.2890    5.3540 Cl  0  0  0  0  0  0  0  0  0  0  0  0
   14.4610   68.0480    6.0670 C   0  0  0  0  0  0  0  0  0  0  0  0
   16.3500   69.5550    6.1220 C   0  0  0  0  0  0  0  0  0  0  0  0
   16.3520   70.8420    3.3560 C   0  0  0  0  0  0  0  0  0  0  0  0
   17.6450   71.8740    1.6420 N   0  0  0  0  0  0  0  0  0  0  0  0
   20.1030   72.2040    2.1830 C   0  0  0  0  0  0  0  0  0  0  0  0
   20.7940   71.8830    3.2940 N   0  0  0  0  0  0  0  0  0  0  0  0
   24.5190   72.2140    6.6590 C   0  0  0  0  0  0  0  0  0  0  0  0
   23.7660   73.2370    7.4220 N   0  0  0  0  0  0  0  0  0  0  0  0
   22.2970   73.1190    7.2850 C   0  0  0  0  0  0  0  0  0  0  0  0
   19.9340   71.2840    4.2210 N   0  0  0  0  0  0  0  0  0  0  0  0
   16.0700   69.8030    7.4770 C   0  0  0  0  0  0  0  0  0  0  0  0
   14.9840   69.1630    8.0620 C   0  0  0  0  0  0  0  0  0  0  0  0
   14.2260   68.3250    7.3560 N   0  0  0  0  0  0  0  0  0  0  0  0
   11.1176   64.8191    3.3547 H   0  0  0  0  0  0  0  0  0  0  0  0
   11.8335   67.7625    6.4203 H   0  0  0  0  0  0  0  0  0  0  0  0
   15.7318   68.4505    4.3650 H   0  0  0  0  0  0  0  0  0  0  0  0
   18.3111   70.2181    6.0271 H   0  0  0  0  0  0  0  0  0  0  0  0
   15.6055   71.5002    1.4491 H   0  0  0  0  0  0  0  0  0  0  0  0
   22.8019   71.3383    3.0046 H   0  0  0  0  0  0  0  0  0  0  0  0
   22.4660   73.1209    3.1057 H   0  0  0  0  0  0  0  0  0  0  0  0
   22.2311   71.1796    5.4349 H   0  0  0  0  0  0  0  0  0  0  0  0
   24.5887   71.3388    4.6797 H   0  0  0  0  0  0  0  0  0  0  0  0
   24.4812   73.1412    4.7087 H   0  0  0  0  0  0  0  0  0  0  0  0
   22.2251   74.2309    5.4201 H   0  0  0  0  0  0  0  0  0  0  0  0
   20.8103   73.1715    5.6959 H   0  0  0  0  0  0  0  0  0  0  0  0
   13.5298   64.8319    2.7405 H   0  0  0  0  0  0  0  0  0  0  0  0
   15.3664   70.4786    3.6823 H   0  0  0  0  0  0  0  0  0  0  0  0
   20.5138   72.6864    1.2838 H   0  0  0  0  0  0  0  0  0  0  0  0
   24.3073   71.2231    7.0870 H   0  0  0  0  0  0  0  0  0  0  0  0
   25.5901   72.4543    6.7296 H   0  0  0  0  0  0  0  0  0  0  0  0
   24.0083   73.1431    8.4187 H   0  0  0  0  0  0  0  0  0  0  0  0
   21.8104   73.9161    7.8662 H   0  0  0  0  0  0  0  0  0  0  0  0
   21.9737   72.1373    7.6615 H   0  0  0  0  0  0  0  0  0  0  0  0
   16.6982   70.4902    8.0628 H   0  0  0  0  0  0  0  0  0  0  0  0
   14.7475   69.3504    9.1198 H   0  0  0  0  0  0  0  0  0  0  0  0
 22  8  2  0
 22  9  1  0
  8 21  1  0
 23  9  2  0
 23 24  1  0
  9 14  1  0
 24 10  1  0
 24 28  1  0
 21  7  2  0
 10 11  1  0
 17  1  2  0
 17 16  1  0
 14  7  1  0
 14 28  2  0
 15 16  1  0
  1  2  1  0
  7  6  1  0
 16  4  2  0
  2 18  1  0
  2  3  2  0
 11 12  1  0
 11 13  1  0
 12 25  1  0
  4  3  1  0
  4 19  1  0
  5 19  2  0
  5 20  1  0
  6 20  1  0
 13 27  1  0
 19 31  1  0
 20 29  2  0
 25 26  1  0
 27 26  1  0
 31 30  2  0
 29 30  1  0
  1 32  1  0
  3 33  1  0
  5 34  1  0
  6 35  1  0
  8 36  1  0
 10 37  1  0
 10 38  1  0
 11 39  1  0
 12 40  1  0
 12 41  1  0
 13 42  1  0
 13 43  1  0
 17 44  1  0
 21 45  1  0
 23 46  1  0
 25 47  1  0
 25 48  1  0
 26 49  1  0
 27 50  1  0
 27 51  1  0
 29 52  1  0
 30 53  1  0
A    1
C4
A    2
C5
A    3
C7
A    4
C8
A    5
C10
A    6
N12
A    7
C13
A    8
C15
A    9
C17
A   10
C20
A   11
C21
A   12
C22
A   13
C26
A   14
C28
A   15
F1
A   16
C2
A   17
C3
A   18
CL6
A   19
C9
A   20
C11
A   21
C14
A   22
N16
A   23
C18
A   24
N19
A   25
C23
A   26
N24
A   27
C25
A   28
N27
A   29
C29
A   30
C30
A   31
N31
M  END
