4RX9_3YT_A_702
     RDKit          3D

 52 55  0  0  0  0  0  0  0  0999 V2000
    0.7180    4.4890   13.2900 C   0  0  0  0  0  0  0  0  0  0  0  0
   -0.7130    4.6440   12.7470 C   0  0  0  0  0  0  0  0  0  0  0  0
    5.2170    1.8220   14.5260 C   0  0  0  0  0  0  0  0  0  0  0  0
    4.4300    0.6850   14.7330 C   0  0  0  0  0  0  0  0  0  0  0  0
    4.9710   -0.4290   15.5510 C   0  0  0  0  0  0  0  0  0  0  0  0
    3.1500    0.6100   14.2180 C   0  0  0  0  0  0  0  0  0  0  0  0
    1.1240   -0.6660   14.3210 C   0  0  0  0  0  0  0  0  0  0  0  0
    0.5630   -1.7050   15.0130 C   0  0  0  0  0  0  0  0  0  0  0  0
   -0.7590   -2.0190   14.8630 C   0  0  0  0  0  0  0  0  0  0  0  0
   -1.5550   -1.2470   14.0420 C   0  0  0  0  0  0  0  0  0  0  0  0
   -1.0320   -0.1890   13.3200 C   0  0  0  0  0  0  0  0  0  0  0  0
    0.3360    0.0910   13.4620 C   0  0  0  0  0  0  0  0  0  0  0  0
   -3.8080    1.2280   11.9570 C   0  0  0  0  0  0  0  0  0  0  0  0
   -2.7330    1.9180   11.2450 C   0  0  0  0  0  0  0  0  0  0  0  0
    1.2070    5.8250   13.6600 N   0  0  0  0  0  0  0  0  0  0  0  0
   -0.7520    5.3880   11.3930 C   0  0  0  0  0  0  0  0  0  0  0  0
    0.1280    4.6870   10.3370 C   0  0  0  0  0  0  0  0  0  0  0  0
    1.5640    4.7040   10.8860 C   0  0  0  0  0  0  0  0  0  0  0  0
    1.6340    3.8850   12.1900 C   0  0  0  0  0  0  0  0  0  0  0  0
    3.0030    3.7850   12.6300 N   0  0  0  0  0  0  0  0  0  0  0  0
    3.4680    2.7320   13.3130 C   0  0  0  0  0  0  0  0  0  0  0  0
    4.6980    2.8070   13.8170 N   0  0  0  0  0  0  0  0  0  0  0  0
    6.2030   -0.3310   15.8860 N   0  0  0  0  0  0  0  0  0  0  0  0
    4.2250   -1.2820   15.9020 O   0  0  0  0  0  0  0  0  0  0  0  0
    2.4190   -0.4840   14.4890 N   0  0  0  0  0  0  0  0  0  0  0  0
   -1.9070    0.5170   12.5830 N   0  0  0  0  0  0  0  0  0  0  0  0
   -3.2430    0.4460   12.7360 N   0  0  0  0  0  0  0  0  0  0  0  0
   -1.6570    1.4470   11.6780 N   0  0  0  0  0  0  0  0  0  0  0  0
    2.6950    1.6520   13.5010 N   0  0  0  0  0  0  0  0  0  0  0  0
    0.7266    3.8195   14.1627 H   0  0  0  0  0  0  0  0  0  0  0  0
   -1.3090    5.2098   13.4783 H   0  0  0  0  0  0  0  0  0  0  0  0
   -1.1222    3.6355   12.5874 H   0  0  0  0  0  0  0  0  0  0  0  0
    6.2337    1.8932   14.9398 H   0  0  0  0  0  0  0  0  0  0  0  0
    1.1855   -2.2965   15.7005 H   0  0  0  0  0  0  0  0  0  0  0  0
   -1.1859   -2.8826   15.3940 H   0  0  0  0  0  0  0  0  0  0  0  0
   -2.6274   -1.4774   13.9598 H   0  0  0  0  0  0  0  0  0  0  0  0
    0.7874    0.9149   12.8898 H   0  0  0  0  0  0  0  0  0  0  0  0
   -4.8909    1.3724   11.8284 H   0  0  0  0  0  0  0  0  0  0  0  0
   -2.8476    2.6986   10.4785 H   0  0  0  0  0  0  0  0  0  0  0  0
    1.2372    5.9075   14.6862 H   0  0  0  0  0  0  0  0  0  0  0  0
    2.1530    5.9627   13.2765 H   0  0  0  0  0  0  0  0  0  0  0  0
   -0.3858    6.4149   11.5388 H   0  0  0  0  0  0  0  0  0  0  0  0
   -1.7905    5.3904   11.0303 H   0  0  0  0  0  0  0  0  0  0  0  0
    0.0799    5.2295    9.3813 H   0  0  0  0  0  0  0  0  0  0  0  0
   -0.2153    3.6585   10.1518 H   0  0  0  0  0  0  0  0  0  0  0  0
    2.2447    4.2648   10.1419 H   0  0  0  0  0  0  0  0  0  0  0  0
    1.8615    5.7426   11.0929 H   0  0  0  0  0  0  0  0  0  0  0  0
    1.2586    2.8705   11.9905 H   0  0  0  0  0  0  0  0  0  0  0  0
    3.6500    4.5556   12.4098 H   0  0  0  0  0  0  0  0  0  0  0  0
    6.4659   -0.3101   16.8817 H   0  0  0  0  0  0  0  0  0  0  0  0
    6.9311   -0.2731   15.1598 H   0  0  0  0  0  0  0  0  0  0  0  0
    2.9373   -1.2843   14.8785 H   0  0  0  0  0  0  0  0  0  0  0  0
 17 18  1  0
 17 16  1  0
 18 19  1  0
 14 28  2  0
 14 13  1  0
 16  2  1  0
 28 26  1  0
 13 27  2  0
 19 20  1  0
 19  1  1  0
 26 27  1  0
 26 11  1  0
 20 21  1  0
  2  1  1  0
  1 15  1  0
 21 29  2  0
 21 22  1  0
 11 12  2  0
 11 10  1  0
 12  7  1  0
 29  6  1  0
 22  3  2  0
 10  9  2  0
  6 25  1  0
  6  4  2  0
  7 25  1  0
  7  8  2  0
  3  4  1  0
  4  5  1  0
  9  8  1  0
  5 23  1  0
  5 24  2  0
  1 30  1  0
  2 31  1  0
  2 32  1  0
  3 33  1  0
  8 34  1  0
  9 35  1  0
 10 36  1  0
 12 37  1  0
 13 38  1  0
 14 39  1  0
 15 40  1  0
 15 41  1  0
 16 42  1  0
 16 43  1  0
 17 44  1  0
 17 45  1  0
 18 46  1  0
 18 47  1  0
 19 48  1  0
 20 49  1  0
 23 50  1  0
 23 51  1  0
 25 52  1  0
A    1
C2
A    2
C3
A    3
C11
A    4
C12
A    5
C13
A    6
C16
A    7
C18
A    8
C19
A    9
C20
A   10
C21
A   11
C22
A   12
C23
A   13
C26
A   14
C27
A   15
N1
A   16
C4
A   17
C5
A   18
C6
A   19
C7
A   20
N8
A   21
C9
A   22
N10
A   23
N14
A   24
O15
A   25
N17
A   26
N24
A   27
N25
A   28
N28
A   29
N29
M  END
