3ZON_IK1_A_1871
     RDKit          3D

 29 30  0  0  0  0  0  0  0  0999 V2000
   17.8830   24.3540    6.1030 N   0  0  0  0  0  0  0  0  0  0  0  0
   12.7360   22.8230    2.7560 N   0  0  0  0  0  0  0  0  0  0  0  0
   16.4510   23.5140    7.5960 O   0  0  0  0  0  0  0  0  0  0  0  0
   14.8720   23.3260    3.2100 O   0  0  0  0  0  0  0  0  0  0  0  0
    8.9820   22.0540    8.1330 C   0  0  0  0  0  0  0  0  0  0  0  0
   10.3890   22.7230    9.9660 C   0  0  0  0  0  0  0  0  0  0  0  0
   10.0150   22.3140    7.2460 C   0  0  0  0  0  0  0  0  0  0  0  0
   11.4240   22.9740    9.0830 C   0  0  0  0  0  0  0  0  0  0  0  0
   12.2660   22.9100    5.5440 C   0  0  0  0  0  0  0  0  0  0  0  0
   15.7020   23.9090    5.5050 N   0  0  0  0  0  0  0  0  0  0  0  0
   13.7830   23.4250    7.3620 S   0  0  0  0  0  0  0  0  0  0  0  0
   16.6590   23.9370    6.4640 C   0  0  0  0  0  0  0  0  0  0  0  0
   13.7130   23.1640    3.6040 C   0  0  0  0  0  0  0  0  0  0  0  0
    9.1630   22.2660    9.4960 C   0  0  0  0  0  0  0  0  0  0  0  0
   11.2580   22.7720    7.7060 C   0  0  0  0  0  0  0  0  0  0  0  0
   12.2800   23.0180    6.8740 C   0  0  0  0  0  0  0  0  0  0  0  0
   13.4550   23.2060    4.9430 C   0  0  0  0  0  0  0  0  0  0  0  0
   14.4460   23.5340    5.8070 C   0  0  0  0  0  0  0  0  0  0  0  0
   18.5796   24.5913    6.8237 H   0  0  0  0  0  0  0  0  0  0  0  0
   18.1255   24.4366    5.1054 H   0  0  0  0  0  0  0  0  0  0  0  0
   11.8261   22.5054    3.1195 H   0  0  0  0  0  0  0  0  0  0  0  0
   12.8937   22.8781    1.7396 H   0  0  0  0  0  0  0  0  0  0  0  0
    8.0178   21.6795    7.7587 H   0  0  0  0  0  0  0  0  0  0  0  0
   10.5366   22.8856   11.0439 H   0  0  0  0  0  0  0  0  0  0  0  0
    9.8578   22.1592    6.1684 H   0  0  0  0  0  0  0  0  0  0  0  0
   12.3892   23.3366    9.4663 H   0  0  0  0  0  0  0  0  0  0  0  0
   11.3715   22.6078    4.9796 H   0  0  0  0  0  0  0  0  0  0  0  0
   15.9378   24.1766    4.5387 H   0  0  0  0  0  0  0  0  0  0  0  0
    8.3393   22.0728   10.1990 H   0  0  0  0  0  0  0  0  0  0  0  0
  1 12  1  0
  2 13  1  0
  3 12  2  0
  4 13  2  0
  6  8  1  0
  6 14  2  0
  5  7  2  0
  5 14  1  0
  8 15  2  0
  7 15  1  0
  9 16  2  0
  9 17  1  0
 10 12  1  0
 10 18  1  0
 11 16  1  0
 11 18  1  0
 13 17  1  0
 15 16  1  0
 17 18  2  0
  1 19  1  0
  1 20  1  0
  2 21  1  0
  2 22  1  0
  5 23  1  0
  6 24  1  0
  7 25  1  0
  8 26  1  0
  9 27  1  0
 10 28  1  0
 14 29  1  0
A    1
NAA
A    2
NAB
A    3
OAC
A    4
OAD
A    5
CAG
A    6
CAF
A    7
CAI
A    8
CAH
A    9
CAJ
A   10
NAK
A   11
SAL
A   12
CAM
A   13
CAN
A   14
CAO
A   15
CAP
A   16
CAQ
A   17
CAR
A   18
CAS
M  END
