5UT6_8MY_A_901
     RDKit          3D

 36 38  0  0  0  0  0  0  0  0999 V2000
  -28.9820   16.5900   75.7200 C   0  0  0  0  0  0  0  0  0  0  0  0
  -29.3040   14.4610   76.8000 C   0  0  0  0  0  0  0  0  0  0  0  0
  -29.5650   12.2770   77.6190 C   0  0  0  0  0  0  0  0  0  0  0  0
  -27.4290   11.6310   77.5570 C   0  0  0  0  0  0  0  0  0  0  0  0
  -34.7110   16.1310   76.9900 C   0  0  0  0  0  0  0  0  0  0  0  0
  -36.9200   13.8150   78.9540 C   0  0  0  0  0  0  0  0  0  0  0  0
  -35.6620   14.4450   78.3780 C   0  0  0  0  0  0  0  0  0  0  0  0
  -34.4180   13.9280   78.6820 C   0  0  0  0  0  0  0  0  0  0  0  0
  -33.2900   14.5250   78.1330 C   0  0  0  0  0  0  0  0  0  0  0  0
  -33.4650   15.6240   77.2920 C   0  0  0  0  0  0  0  0  0  0  0  0
  -31.0160   15.9450   76.5310 C   0  0  0  0  0  0  0  0  0  0  0  0
  -28.4750   15.3600   76.1580 C   0  0  0  0  0  0  0  0  0  0  0  0
  -28.7020   11.2190   77.8750 C   0  0  0  0  0  0  0  0  0  0  0  0
  -26.1630   10.7830   77.6700 C   0  0  0  0  0  0  0  0  0  0  0  0
  -35.8200   15.5270   77.5390 C   0  0  0  0  0  0  0  0  0  0  0  0
  -37.8710   13.3680   79.3630 N   0  0  0  0  0  0  0  0  0  0  0  0
  -32.3680   16.3430   76.6900 N   0  0  0  0  0  0  0  0  0  0  0  0
  -30.2480   16.8600   75.9170 N   0  0  0  0  0  0  0  0  0  0  0  0
  -28.1050   17.5270   75.0400 N   0  0  0  0  0  0  0  0  0  0  0  0
  -28.8270   13.2800   77.1950 N   0  0  0  0  0  0  0  0  0  0  0  0
  -27.5140   12.8970   77.1320 N   0  0  0  0  0  0  0  0  0  0  0  0
  -30.5670   14.7970   76.9530 N   0  0  0  0  0  0  0  0  0  0  0  0
  -25.5200   10.8700   76.4200 O   0  0  0  0  0  0  0  0  0  0  0  0
  -30.6576   12.2762   77.7466 H   0  0  0  0  0  0  0  0  0  0  0  0
  -34.8170   17.0002   76.3242 H   0  0  0  0  0  0  0  0  0  0  0  0
  -34.3218   13.0578   79.3479 H   0  0  0  0  0  0  0  0  0  0  0  0
  -32.2838   14.1405   78.3560 H   0  0  0  0  0  0  0  0  0  0  0  0
  -27.4169   15.1101   75.9907 H   0  0  0  0  0  0  0  0  0  0  0  0
  -28.9858   10.2294   78.2625 H   0  0  0  0  0  0  0  0  0  0  0  0
  -26.4227    9.7377   77.8935 H   0  0  0  0  0  0  0  0  0  0  0  0
  -25.5121   11.1400   78.4817 H   0  0  0  0  0  0  0  0  0  0  0  0
  -36.8267   15.9061   77.3092 H   0  0  0  0  0  0  0  0  0  0  0  0
  -32.5997   17.2775   76.3240 H   0  0  0  0  0  0  0  0  0  0  0  0
  -27.5086   18.1642   75.5871 H   0  0  0  0  0  0  0  0  0  0  0  0
  -28.0794   17.5543   74.0107 H   0  0  0  0  0  0  0  0  0  0  0  0
  -24.5484   11.0015   76.5571 H   0  0  0  0  0  0  0  0  0  0  0  0
 19  1  1  0
  1 18  2  0
  1 12  1  0
 18 11  1  0
 12  2  2  0
 23 14  1  0
 11 17  1  0
 11 22  2  0
 17 10  1  0
  2 22  1  0
  2 20  1  0
  5 10  2  0
  5 15  1  0
 21 20  1  0
 21  4  2  0
 20  3  1  0
 10  9  1  0
 15  7  2  0
  4 14  1  0
  4 13  1  0
  3 13  2  0
  9  8  2  0
  7  8  1  0
  7  6  1  0
  6 16  3  0
  3 24  1  0
  5 25  1  0
  8 26  1  0
  9 27  1  0
 12 28  1  0
 13 29  1  0
 14 30  1  0
 14 31  1  0
 15 32  1  0
 17 33  1  0
 19 34  1  0
 19 35  1  0
 23 36  1  0
A    1
C10
A    2
C13
A    3
C15
A    4
C17
A    5
C22
A    6
C02
A    7
C03
A    8
C04
A    9
C05
A   10
C06
A   11
C08
A   12
C12
A   13
C16
A   14
C18
A   15
C23
A   16
N01
A   17
N07
A   18
N09
A   19
N11
A   20
N14
A   21
N20
A   22
N21
A   23
O19
M  END
