5TKX_7DZ_A_401
     RDKit          3D

 51 53  0  0  0  0  0  0  0  0999 V2000
   -4.9540  -17.3670  -12.4790 C   0  0  0  0  0  0  0  0  0  0  0  0
    4.5060  -15.6640  -11.1420 C   0  0  0  0  0  0  0  0  0  0  0  0
    3.2240  -15.2040  -11.0130 C   0  0  0  0  0  0  0  0  0  0  0  0
    4.8280  -17.0090  -11.0810 C   0  0  0  0  0  0  0  0  0  0  0  0
    3.7790  -17.8930  -10.9240 C   0  0  0  0  0  0  0  0  0  0  0  0
   -1.4040  -15.6430  -10.8930 N   0  0  0  0  0  0  0  0  0  0  0  0
    2.4750  -17.4820  -10.8360 C   0  0  0  0  0  0  0  0  0  0  0  0
    2.1930  -16.1210  -10.8580 C   0  0  0  0  0  0  0  0  0  0  0  0
    3.1010  -20.1580  -13.8280 C   0  0  0  0  0  0  0  0  0  0  0  0
    1.9140  -20.2800  -14.7480 C   0  0  0  0  0  0  0  0  0  0  0  0
    2.3240  -20.0090  -16.1780 C   0  0  0  0  0  0  0  0  0  0  0  0
    0.7550  -19.4040  -14.3030 C   0  0  0  0  0  0  0  0  0  0  0  0
    0.1340  -19.8810  -12.9990 C   0  0  0  0  0  0  0  0  0  0  0  0
   -1.2770  -18.0680  -12.1570 C   0  0  0  0  0  0  0  0  0  0  0  0
   -0.2720  -16.3310  -11.0800 C   0  0  0  0  0  0  0  0  0  0  0  0
   -2.5140  -16.2090  -11.3700 C   0  0  0  0  0  0  0  0  0  0  0  0
    6.0200  -17.4500  -11.5400 O   0  0  0  0  0  0  0  0  0  0  0  0
   -2.5340  -17.4230  -12.0310 C   0  0  0  0  0  0  0  0  0  0  0  0
   -3.6080  -19.2110  -13.2840 C   0  0  0  0  0  0  0  0  0  0  0  0
   -2.3660  -20.0640  -13.1060 C   0  0  0  0  0  0  0  0  0  0  0  0
   -0.1540  -17.5250  -11.6750 N   0  0  0  0  0  0  0  0  0  0  0  0
    4.0850  -19.1980  -10.7940 F   0  0  0  0  0  0  0  0  0  0  0  0
    5.5090  -14.7950  -11.3540 F   0  0  0  0  0  0  0  0  0  0  0  0
    0.8780  -15.6650  -10.8360 N   0  0  0  0  0  0  0  0  0  0  0  0
   -3.6590  -18.0280  -12.5960 N   0  0  0  0  0  0  0  0  0  0  0  0
   -4.5150  -19.5690  -13.9980 O   0  0  0  0  0  0  0  0  0  0  0  0
   -1.1810  -19.2960  -12.7160 N   0  0  0  0  0  0  0  0  0  0  0  0
   -2.6670  -21.2120  -12.1540 C   0  0  0  0  0  0  0  0  0  0  0  0
   -5.2054  -17.2387  -11.4158 H   0  0  0  0  0  0  0  0  0  0  0  0
   -4.9083  -16.3820  -12.9665 H   0  0  0  0  0  0  0  0  0  0  0  0
   -5.7249  -17.9819  -12.9665 H   0  0  0  0  0  0  0  0  0  0  0  0
    3.0133  -14.1245  -11.0318 H   0  0  0  0  0  0  0  0  0  0  0  0
    1.6627  -18.2186  -10.7492 H   0  0  0  0  0  0  0  0  0  0  0  0
    2.7599  -20.1931  -12.7828 H   0  0  0  0  0  0  0  0  0  0  0  0
    3.7966  -20.9894  -14.0148 H   0  0  0  0  0  0  0  0  0  0  0  0
    3.6130  -19.2025  -14.0148 H   0  0  0  0  0  0  0  0  0  0  0  0
    1.5474  -21.3158  -14.6957 H   0  0  0  0  0  0  0  0  0  0  0  0
    3.2416  -19.4025  -16.1877 H   0  0  0  0  0  0  0  0  0  0  0  0
    2.5096  -20.9630  -16.6933 H   0  0  0  0  0  0  0  0  0  0  0  0
    1.5191  -19.4644  -16.6933 H   0  0  0  0  0  0  0  0  0  0  0  0
    1.1221  -18.3764  -14.1642 H   0  0  0  0  0  0  0  0  0  0  0  0
   -0.0207  -19.4537  -15.0814 H   0  0  0  0  0  0  0  0  0  0  0  0
    0.0230  -20.9743  -13.0482 H   0  0  0  0  0  0  0  0  0  0  0  0
    0.8063  -19.5598  -12.1898 H   0  0  0  0  0  0  0  0  0  0  0  0
   -3.4678  -15.6794  -11.2293 H   0  0  0  0  0  0  0  0  0  0  0  0
    6.7298  -17.7126  -10.9017 H   0  0  0  0  0  0  0  0  0  0  0  0
   -2.1029  -20.4847  -14.0877 H   0  0  0  0  0  0  0  0  0  0  0  0
    0.7645  -14.6694  -10.5977 H   0  0  0  0  0  0  0  0  0  0  0  0
   -2.5750  -20.8610  -11.1156 H   0  0  0  0  0  0  0  0  0  0  0  0
   -3.6906  -21.5747  -12.3291 H   0  0  0  0  0  0  0  0  0  0  0  0
   -1.9531  -22.0303  -12.3291 H   0  0  0  0  0  0  0  0  0  0  0  0
 11 10  1  0
 10 12  1  0
 10  9  1  0
 12 13  1  0
 26 19  2  0
 19 20  1  0
 19 25  1  0
 20 27  1  0
 20 28  1  0
 13 27  1  0
 27 14  1  0
 25  1  1  0
 25 18  1  0
 14 18  2  0
 14 21  1  0
 18 16  1  0
 21 15  2  0
 17  4  1  0
 16  6  2  0
 23  2  1  0
  2  4  2  0
  2  3  1  0
  4  5  1  0
 15  6  1  0
 15 24  1  0
  3  8  2  0
  5  7  2  0
  5 22  1  0
  8  7  1  0
  8 24  1  0
  1 29  1  0
  1 30  1  0
  1 31  1  0
  3 32  1  0
  7 33  1  0
  9 34  1  0
  9 35  1  0
  9 36  1  0
 10 37  1  0
 11 38  1  0
 11 39  1  0
 11 40  1  0
 12 41  1  0
 12 42  1  0
 13 43  1  0
 13 44  1  0
 16 45  1  0
 17 46  1  0
 20 47  1  0
 24 48  1  0
 28 49  1  0
 28 50  1  0
 28 51  1  0
A    1
C18
A    2
C16
A    3
C17
A    4
C15
A    5
C14
A    6
N1
A    7
C13
A    8
C12
A    9
C11
A   10
C9
A   11
C10
A   12
C8
A   13
C7
A   14
C6
A   15
C5
A   16
C4
A   17
O1
A   18
C3
A   19
C2
A   20
C1
A   21
N2
A   22
F1
A   23
F
A   24
N4
A   25
N
A   26
O
A   27
N3
A   28
C
M  END
