5UV3_8N4_A_201
     RDKit          3D

 63 66  0  0  0  0  0  0  0  0999 V2000
   95.6530  112.7610   14.9260 C   0  0  0  0  0  0  0  0  0  0  0  0
   98.2760  111.4640   15.1020 C   0  0  0  0  0  0  0  0  0  0  0  0
  102.5250  116.0060   18.7930 C   0  0  0  0  0  0  0  0  0  0  0  0
  103.3410  118.6340   19.3420 C   0  0  0  0  0  0  0  0  0  0  0  0
  103.8910  117.9430   18.2730 C   0  0  0  0  0  0  0  0  0  0  0  0
  103.4670  116.6340   18.0020 C   0  0  0  0  0  0  0  0  0  0  0  0
   98.9480  115.5180   21.5620 C   0  0  0  0  0  0  0  0  0  0  0  0
  102.6090  111.1000   17.5080 C   0  0  0  0  0  0  0  0  0  0  0  0
  101.7440  110.0500   17.2820 C   0  0  0  0  0  0  0  0  0  0  0  0
  100.3540  110.1360   17.2910 C   0  0  0  0  0  0  0  0  0  0  0  0
   99.7980  111.3840   17.5750 C   0  0  0  0  0  0  0  0  0  0  0  0
  100.6420  112.4270   17.8230 N   0  0  0  0  0  0  0  0  0  0  0  0
  102.0120  112.3270   17.7760 C   0  0  0  0  0  0  0  0  0  0  0  0
   98.2870  111.5650   17.6030 C   0  0  0  0  0  0  0  0  0  0  0  0
   97.8590  112.2760   16.3090 C   0  0  0  0  0  0  0  0  0  0  0  0
   96.3350  112.4780   16.2940 C   0  0  0  0  0  0  0  0  0  0  0  0
   96.4180  112.4390   13.6440 C   0  0  0  0  0  0  0  0  0  0  0  0
   97.9050  112.2310   13.8510 C   0  0  0  0  0  0  0  0  0  0  0  0
  102.8090  113.5980   18.0460 C   0  0  0  0  0  0  0  0  0  0  0  0
  104.0190  113.6790   17.9060 O   0  0  0  0  0  0  0  0  0  0  0  0
  102.0390  114.6890   18.5010 N   0  0  0  0  0  0  0  0  0  0  0  0
  101.9650  116.7490   19.8220 C   0  0  0  0  0  0  0  0  0  0  0  0
  102.3760  118.0470   20.1280 C   0  0  0  0  0  0  0  0  0  0  0  0
  103.7830  120.0660   19.6250 C   0  0  0  0  0  0  0  0  0  0  0  0
  103.7060  120.5190   20.7790 O   0  0  0  0  0  0  0  0  0  0  0  0
  104.2060  120.7810   18.6830 O   0  0  0  0  0  0  0  0  0  0  0  0
  101.0360  116.1540   20.6620 N   0  0  0  0  0  0  0  0  0  0  0  0
   99.7120  115.8510   20.4410 C   0  0  0  0  0  0  0  0  0  0  0  0
   97.6260  115.1720   21.3280 C   0  0  0  0  0  0  0  0  0  0  0  0
   97.1130  115.1840   20.0100 C   0  0  0  0  0  0  0  0  0  0  0  0
   97.9360  115.5120   18.9590 C   0  0  0  0  0  0  0  0  0  0  0  0
   99.2440  115.8370   19.1600 C   0  0  0  0  0  0  0  0  0  0  0  0
   97.4890  115.4950   17.6190 O   0  0  0  0  0  0  0  0  0  0  0  0
   96.7050  116.5630   17.1400 C   0  0  0  0  0  0  0  0  0  0  0  0
   97.2640  117.7710   17.4670 F   0  0  0  0  0  0  0  0  0  0  0  0
   95.4860  116.4090   17.7180 F   0  0  0  0  0  0  0  0  0  0  0  0
   96.6740  116.4360   15.7720 F   0  0  0  0  0  0  0  0  0  0  0  0
   95.4141  113.8344   14.8994 H   0  0  0  0  0  0  0  0  0  0  0  0
   94.7971  112.0703   14.9066 H   0  0  0  0  0  0  0  0  0  0  0  0
   97.7560  110.4947   15.1101 H   0  0  0  0  0  0  0  0  0  0  0  0
   99.3614  111.2868   15.1256 H   0  0  0  0  0  0  0  0  0  0  0  0
  104.6555  118.4188   17.6412 H   0  0  0  0  0  0  0  0  0  0  0  0
  103.8933  116.0966   17.1421 H   0  0  0  0  0  0  0  0  0  0  0  0
   99.3727  115.5297   22.5766 H   0  0  0  0  0  0  0  0  0  0  0  0
  103.7015  110.9749   17.4782 H   0  0  0  0  0  0  0  0  0  0  0  0
  102.1880  109.0645   17.0781 H   0  0  0  0  0  0  0  0  0  0  0  0
   99.7227  109.2594   17.0835 H   0  0  0  0  0  0  0  0  0  0  0  0
   98.0020  112.1743   18.4733 H   0  0  0  0  0  0  0  0  0  0  0  0
   97.7906  110.5863   17.6782 H   0  0  0  0  0  0  0  0  0  0  0  0
   98.3538  113.2577   16.2701 H   0  0  0  0  0  0  0  0  0  0  0  0
   96.1106  113.3287   16.9543 H   0  0  0  0  0  0  0  0  0  0  0  0
   95.9247  111.5081   16.6118 H   0  0  0  0  0  0  0  0  0  0  0  0
   96.2798  113.2726   12.9397 H   0  0  0  0  0  0  0  0  0  0  0  0
   96.0136  111.4905   13.2610 H   0  0  0  0  0  0  0  0  0  0  0  0
   98.2962  111.6789   12.9837 H   0  0  0  0  0  0  0  0  0  0  0  0
   98.3426  113.2338   13.9643 H   0  0  0  0  0  0  0  0  0  0  0  0
  101.0314  114.5237   18.6364 H   0  0  0  0  0  0  0  0  0  0  0  0
  101.9381  118.5892   20.9790 H   0  0  0  0  0  0  0  0  0  0  0  0
  103.8088  119.9142   21.5561 H   0  0  0  0  0  0  0  0  0  0  0  0
  101.3915  115.8998   21.5947 H   0  0  0  0  0  0  0  0  0  0  0  0
   96.9754  114.8879   22.1682 H   0  0  0  0  0  0  0  0  0  0  0  0
   96.0582  114.9315   19.8265 H   0  0  0  0  0  0  0  0  0  0  0  0
   99.9032  116.0809   18.3138 H   0  0  0  0  0  0  0  0  0  0  0  0
 17 18  1  0
 17  1  1  0
 18  2  1  0
  1 16  1  0
  2 15  1  0
 37 34  1  0
 16 15  1  0
 15 14  1  0
 34 35  1  0
 34 33  1  0
 34 36  1  0
  9 10  1  0
  9  8  2  0
 10 11  2  0
  8 13  1  0
 11 14  1  0
 11 12  1  0
 33 31  1  0
 13 12  2  0
 13 19  1  0
 20 19  2  0
  6  5  1  0
  6  3  2  0
 19 21  1  0
  5  4  2  0
 21  3  1  0
 26 24  2  0
  3 22  1  0
 31 32  2  0
 31 30  1  0
 32 28  1  0
  4 24  1  0
  4 23  1  0
 24 25  1  0
 22 23  2  0
 22 27  1  0
 30 29  2  0
 28 27  1  0
 28  7  2  0
 29  7  1  0
  1 38  1  0
  1 39  1  0
  2 40  1  0
  2 41  1  0
  5 42  1  0
  6 43  1  0
  7 44  1  0
  8 45  1  0
  9 46  1  0
 10 47  1  0
 14 48  1  0
 14 49  1  0
 15 50  1  0
 16 51  1  0
 16 52  1  0
 17 53  1  0
 17 54  1  0
 18 55  1  0
 18 56  1  0
 21 57  1  0
 23 58  1  0
 25 59  1  0
 27 60  1  0
 29 61  1  0
 30 62  1  0
 32 63  1  0
A    1
C10
A    2
C13
A    3
C17
A    4
C20
A    5
C21
A    6
C22
A    7
C28
A    8
C01
A    9
C02
A   10
C03
A   11
C04
A   12
N05
A   13
C06
A   14
C07
A   15
C08
A   16
C09
A   17
C11
A   18
C12
A   19
C14
A   20
O15
A   21
N16
A   22
C18
A   23
C19
A   24
C23
A   25
O24
A   26
O25
A   27
N26
A   28
C27
A   29
C29
A   30
C30
A   31
C31
A   32
C32
A   33
O33
A   34
C34
A   35
F35
A   36
F36
A   37
F37
M  END
