5UVX_8NM_A_501
     RDKit          3D

 48 51  0  0  0  0  0  0  0  0999 V2000
   -0.9770    7.1030   12.7080 C   0  0  0  0  0  0  0  0  0  0  0  0
   -2.9460   11.0240   12.3430 C   0  0  0  0  0  0  0  0  0  0  0  0
   -4.6950   10.7970   10.7260 C   0  0  0  0  0  0  0  0  0  0  0  0
   -2.0050    7.8400   12.1740 C   0  0  0  0  0  0  0  0  0  0  0  0
   -2.1660    9.2620    7.8390 C   0  0  0  0  0  0  0  0  0  0  0  0
   -2.4590    9.7750    6.6070 C   0  0  0  0  0  0  0  0  0  0  0  0
    0.2970    7.2450   12.2070 C   0  0  0  0  0  0  0  0  0  0  0  0
   -1.7530    8.7250   11.1380 C   0  0  0  0  0  0  0  0  0  0  0  0
    0.8950   10.5570    9.5300 C   0  0  0  0  0  0  0  0  0  0  0  0
    2.4390   12.2810    8.7960 C   0  0  0  0  0  0  0  0  0  0  0  0
    3.6900    7.5880   12.5030 C   0  0  0  0  0  0  0  0  0  0  0  0
   -4.8630   12.4480   12.4280 C   0  0  0  0  0  0  0  0  0  0  0  0
   -3.6430   12.0520   12.9220 C   0  0  0  0  0  0  0  0  0  0  0  0
   -5.3940   11.8220   11.3230 C   0  0  0  0  0  0  0  0  0  0  0  0
    0.5420    8.1390   11.1730 C   0  0  0  0  0  0  0  0  0  0  0  0
   -0.9780    9.9010    8.2930 C   0  0  0  0  0  0  0  0  0  0  0  0
   -0.4810    8.8790   10.6120 C   0  0  0  0  0  0  0  0  0  0  0  0
   -3.4820   10.3940   11.2490 C   0  0  0  0  0  0  0  0  0  0  0  0
   -0.5960   10.7760    7.2980 C   0  0  0  0  0  0  0  0  0  0  0  0
   -0.1970    9.7770    9.4720 C   0  0  0  0  0  0  0  0  0  0  0  0
    0.5690   11.6270    7.3660 C   0  0  0  0  0  0  0  0  0  0  0  0
   -1.5120   10.7060    6.2830 N   0  0  0  0  0  0  0  0  0  0  0  0
    1.2700   11.4470    8.5420 N   0  0  0  0  0  0  0  0  0  0  0  0
    1.2780    6.4320   12.8470 N   0  0  0  0  0  0  0  0  0  0  0  0
    0.8690   12.3990    6.4590 O   0  0  0  0  0  0  0  0  0  0  0  0
    3.4380    5.0590   12.8500 O   0  0  0  0  0  0  0  0  0  0  0  0
    2.5500    6.0320   10.6740 O   0  0  0  0  0  0  0  0  0  0  0  0
   -2.8440    9.3680   10.5810 O   0  0  0  0  0  0  0  0  0  0  0  0
    2.7690    6.1140   12.1030 S   0  0  0  0  0  0  0  0  0  0  0  0
   -1.1709    6.4018   13.5330 H   0  0  0  0  0  0  0  0  0  0  0  0
   -1.9732   10.7094   12.7488 H   0  0  0  0  0  0  0  0  0  0  0  0
   -5.1023   10.2996    9.8334 H   0  0  0  0  0  0  0  0  0  0  0  0
   -3.0261    7.7282   12.5676 H   0  0  0  0  0  0  0  0  0  0  0  0
   -2.7418    8.4966    8.3800 H   0  0  0  0  0  0  0  0  0  0  0  0
   -3.3153    9.4865    5.9797 H   0  0  0  0  0  0  0  0  0  0  0  0
    1.5328   10.4822   10.4231 H   0  0  0  0  0  0  0  0  0  0  0  0
    2.5859   12.3858    9.8811 H   0  0  0  0  0  0  0  0  0  0  0  0
    3.3281   11.8120    8.3492 H   0  0  0  0  0  0  0  0  0  0  0  0
    2.2848   13.2743    8.3492 H   0  0  0  0  0  0  0  0  0  0  0  0
    3.7561    7.6938   13.5959 H   0  0  0  0  0  0  0  0  0  0  0  0
    4.7027    7.5137   12.0799 H   0  0  0  0  0  0  0  0  0  0  0  0
    3.1793    8.4656   12.0799 H   0  0  0  0  0  0  0  0  0  0  0  0
   -5.4150   13.2651   12.9156 H   0  0  0  0  0  0  0  0  0  0  0  0
   -3.2194   12.5685   13.7960 H   0  0  0  0  0  0  0  0  0  0  0  0
   -6.3679   12.1378   10.9206 H   0  0  0  0  0  0  0  0  0  0  0  0
    1.5676    8.2600   10.7943 H   0  0  0  0  0  0  0  0  0  0  0  0
   -1.4910   11.2635    5.4171 H   0  0  0  0  0  0  0  0  0  0  0  0
    1.0784    6.0318   13.7749 H   0  0  0  0  0  0  0  0  0  0  0  0
  1  4  2  0
  1  7  1  0
  2 13  2  0
  2 18  1  0
  3 14  1  0
  3 18  2  0
  4  8  1  0
  5  6  2  0
  5 16  1  0
  6 22  1  0
  7 15  2  0
  7 24  1  0
  8 17  2  0
  8 28  1  0
  9 20  2  0
  9 23  1  0
 10 23  1  0
 11 29  1  0
 12 13  1  0
 12 14  2  0
 15 17  1  0
 16 19  2  0
 16 20  1  0
 17 20  1  0
 18 28  1  0
 19 21  1  0
 19 22  1  0
 21 23  1  0
 21 25  2  0
 24 29  1  0
 26 29  2  0
 27 29  2  0
  1 30  1  0
  2 31  1  0
  3 32  1  0
  4 33  1  0
  5 34  1  0
  6 35  1  0
  9 36  1  0
 10 37  1  0
 10 38  1  0
 10 39  1  0
 11 40  1  0
 11 41  1  0
 11 42  1  0
 12 43  1  0
 13 44  1  0
 14 45  1  0
 15 46  1  0
 22 47  1  0
 24 48  1  0
A    1
C4
A    2
C5
A    3
C6
A    4
C7
A    5
C8
A    6
C10
A    7
C13
A    8
C15
A    9
C17
A   10
C20
A   11
C21
A   12
C1
A   13
C2
A   14
C3
A   15
C9
A   16
C11
A   17
C12
A   18
C14
A   19
C16
A   20
C18
A   21
C19
A   22
N22
A   23
N23
A   24
N24
A   25
O25
A   26
O26
A   27
O27
A   28
O28
A   29
S29
M  END
