5UY6_8R4_A_501
     RDKit          3D

 50 54  0  0  0  0  0  0  0  0999 V2000
   14.0810   24.3610   50.4750 C   0  0  0  0  0  0  0  0  0  0  0  0
   10.9970   23.0340   46.8110 C   0  0  0  0  0  0  0  0  0  0  0  0
   13.5590   23.4210   49.5960 C   0  0  0  0  0  0  0  0  0  0  0  0
   12.3630   23.6560   48.9290 C   0  0  0  0  0  0  0  0  0  0  0  0
   16.5950   22.0830   50.4960 C   0  0  0  0  0  0  0  0  0  0  0  0
   13.8730   26.6410   51.6000 C   0  0  0  0  0  0  0  0  0  0  0  0
   15.3780   24.0500   51.1880 C   0  0  0  0  0  0  0  0  0  0  0  0
   15.2760   22.9650   52.2640 C   0  0  0  0  0  0  0  0  0  0  0  0
   16.3070   21.8980   51.9130 C   0  0  0  0  0  0  0  0  0  0  0  0
   16.5160   23.5860   50.2850 C   0  0  0  0  0  0  0  0  0  0  0  0
   11.8100   22.6770   47.9770 C   0  0  0  0  0  0  0  0  0  0  0  0
   11.1870   19.5630   46.3520 N   0  0  0  0  0  0  0  0  0  0  0  0
   13.3950   25.5650   50.6890 C   0  0  0  0  0  0  0  0  0  0  0  0
   11.7000   24.8590   49.1360 C   0  0  0  0  0  0  0  0  0  0  0  0
   12.2050   25.8010   50.0070 C   0  0  0  0  0  0  0  0  0  0  0  0
   14.3250   26.2280   52.7460 O   0  0  0  0  0  0  0  0  0  0  0  0
   13.8230   27.8170   51.2910 O   0  0  0  0  0  0  0  0  0  0  0  0
   10.7050   21.8900   46.0930 O   0  0  0  0  0  0  0  0  0  0  0  0
   11.2640   20.8340   46.7470 C   0  0  0  0  0  0  0  0  0  0  0  0
   11.9390   21.2440   47.9010 C   0  0  0  0  0  0  0  0  0  0  0  0
   12.5720   20.2910   48.6870 C   0  0  0  0  0  0  0  0  0  0  0  0
   12.4940   18.9490   48.2840 C   0  0  0  0  0  0  0  0  0  0  0  0
   11.7920   18.6360   47.1050 C   0  0  0  0  0  0  0  0  0  0  0  0
   13.1470   17.8640   49.0630 C   0  0  0  0  0  0  0  0  0  0  0  0
   14.1840   18.1280   49.9500 C   0  0  0  0  0  0  0  0  0  0  0  0
   14.7890   17.1040   50.6600 C   0  0  0  0  0  0  0  0  0  0  0  0
   14.3800   15.8030   50.4840 C   0  0  0  0  0  0  0  0  0  0  0  0
   13.3630   15.5190   49.6060 C   0  0  0  0  0  0  0  0  0  0  0  0
   12.7510   16.5400   48.8980 C   0  0  0  0  0  0  0  0  0  0  0  0
   10.6709   24.0514   46.5489 H   0  0  0  0  0  0  0  0  0  0  0  0
   14.0994   22.4782   49.4256 H   0  0  0  0  0  0  0  0  0  0  0  0
   15.8490   21.5636   49.8765 H   0  0  0  0  0  0  0  0  0  0  0  0
   17.5744   21.6714   50.2109 H   0  0  0  0  0  0  0  0  0  0  0  0
   15.5951   25.0344   51.6283 H   0  0  0  0  0  0  0  0  0  0  0  0
   15.4947   23.3917   53.2540 H   0  0  0  0  0  0  0  0  0  0  0  0
   14.2628   22.5382   52.2993 H   0  0  0  0  0  0  0  0  0  0  0  0
   15.8968   20.8934   52.0936 H   0  0  0  0  0  0  0  0  0  0  0  0
   17.2141   21.9902   52.5284 H   0  0  0  0  0  0  0  0  0  0  0  0
   17.4613   24.0677   50.5753 H   0  0  0  0  0  0  0  0  0  0  0  0
   16.3410   23.8474   49.2309 H   0  0  0  0  0  0  0  0  0  0  0  0
   10.7617   25.0623   48.5991 H   0  0  0  0  0  0  0  0  0  0  0  0
   11.6636   26.7456   50.1639 H   0  0  0  0  0  0  0  0  0  0  0  0
   13.9389   26.5807   53.5866 H   0  0  0  0  0  0  0  0  0  0  0  0
   13.1179   20.5788   49.5976 H   0  0  0  0  0  0  0  0  0  0  0  0
   11.7381   17.5839   46.7884 H   0  0  0  0  0  0  0  0  0  0  0  0
   14.5286   19.1632   50.0899 H   0  0  0  0  0  0  0  0  0  0  0  0
   15.5998   17.3324   51.3674 H   0  0  0  0  0  0  0  0  0  0  0  0
   14.8664   14.9916   51.0453 H   0  0  0  0  0  0  0  0  0  0  0  0
   13.0339   14.4789   49.4648 H   0  0  0  0  0  0  0  0  0  0  0  0
   11.9397   16.3009   48.1947 H   0  0  0  0  0  0  0  0  0  0  0  0
 18 19  1  0
 18  2  1  0
 12 19  2  0
 12 23  1  0
 19 20  1  0
  2 11  2  0
 23 22  2  0
 20 11  1  0
 20 21  2  0
 11  4  1  0
 22 21  1  0
 22 24  1  0
 29 24  1  0
 29 28  2  0
  4 14  1  0
  4  3  2  0
 24 25  2  0
 14 15  2  0
  3  1  1  0
 28 27  1  0
 25 26  1  0
 15 13  1  0
 10  5  1  0
 10  7  1  0
  1 13  2  0
  1  7  1  0
 27 26  2  0
  5  9  1  0
 13  6  1  0
  7  8  1  0
 17  6  2  0
  6 16  1  0
  9  8  1  0
  2 30  1  0
  3 31  1  0
  5 32  1  0
  5 33  1  0
  7 34  1  0
  8 35  1  0
  8 36  1  0
  9 37  1  0
  9 38  1  0
 10 39  1  0
 10 40  1  0
 14 41  1  0
 15 42  1  0
 16 43  1  0
 21 44  1  0
 23 45  1  0
 25 46  1  0
 26 47  1  0
 27 48  1  0
 28 49  1  0
 29 50  1  0
A    1
C4
A    2
C14
A    3
C5
A    4
C6
A    5
C11
A    6
C7
A    7
C8
A    8
C9
A    9
C10
A   10
C12
A   11
C13
A   12
N1
A   13
C3
A   14
C1
A   15
C2
A   16
O1
A   17
O2
A   18
O3
A   19
C15
A   20
C16
A   21
C17
A   22
C18
A   23
C19
A   24
C20
A   25
C21
A   26
C22
A   27
C23
A   28
C24
A   29
C25
M  END
