5UYJ_8R7_A_501
     RDKit          3D

 47 50  0  0  0  0  0  0  0  0999 V2000
  -25.1740  -12.2710  -11.8130 C   0  0  0  0  0  0  0  0  0  0  0  0
  -25.5930  -14.2010  -14.0480 C   0  0  0  0  0  0  0  0  0  0  0  0
  -22.6440  -12.4580  -10.6510 C   0  0  0  0  0  0  0  0  0  0  0  0
  -21.2880  -12.6890  -10.0080 C   0  0  0  0  0  0  0  0  0  0  0  0
  -23.1400  -13.4690  -11.4810 C   0  0  0  0  0  0  0  0  0  0  0  0
  -21.3360  -13.7050   -8.8830 C   0  0  0  0  0  0  0  0  0  0  0  0
  -19.9900  -14.3990   -8.9210 C   0  0  0  0  0  0  0  0  0  0  0  0
  -19.6550  -14.4730  -10.3480 C   0  0  0  0  0  0  0  0  0  0  0  0
  -20.1750  -13.1760  -10.9510 C   0  0  0  0  0  0  0  0  0  0  0  0
  -24.4320  -13.4300  -12.0000 C   0  0  0  0  0  0  0  0  0  0  0  0
  -24.9340  -14.5320  -12.8820 C   0  0  0  0  0  0  0  0  0  0  0  0
  -25.7570  -16.4900  -14.7430 N   0  0  0  0  0  0  0  0  0  0  0  0
  -24.6750  -11.2260  -11.0560 C   0  0  0  0  0  0  0  0  0  0  0  0
  -22.6260  -10.4160   -8.3970 O   0  0  0  0  0  0  0  0  0  0  0  0
  -23.0090  -10.1500   -9.6110 C   0  0  0  0  0  0  0  0  0  0  0  0
  -23.4340  -11.3240  -10.4250 C   0  0  0  0  0  0  0  0  0  0  0  0
  -26.0050  -15.2080  -14.9270 C   0  0  0  0  0  0  0  0  0  0  0  0
  -25.1220  -16.8570  -13.5800 C   0  0  0  0  0  0  0  0  0  0  0  0
  -24.8820  -18.2330  -13.3650 C   0  0  0  0  0  0  0  0  0  0  0  0
  -24.2310  -18.6610  -12.2360 C   0  0  0  0  0  0  0  0  0  0  0  0
  -23.9500  -19.9600  -11.9130 O   0  0  0  0  0  0  0  0  0  0  0  0
  -24.4850  -20.9830  -12.7530 C   0  0  0  0  0  0  0  0  0  0  0  0
  -23.8560  -17.7450  -11.2440 C   0  0  0  0  0  0  0  0  0  0  0  0
  -24.0430  -16.4100  -11.4380 C   0  0  0  0  0  0  0  0  0  0  0  0
  -24.7060  -15.9150  -12.5950 C   0  0  0  0  0  0  0  0  0  0  0  0
  -23.1410   -9.0170  -10.0210 O   0  0  0  0  0  0  0  0  0  0  0  0
  -26.1698  -12.1829  -12.2720 H   0  0  0  0  0  0  0  0  0  0  0  0
  -25.7942  -13.1461  -14.2862 H   0  0  0  0  0  0  0  0  0  0  0  0
  -21.0444  -11.6776   -9.6506 H   0  0  0  0  0  0  0  0  0  0  0  0
  -22.4901  -14.3204  -11.7313 H   0  0  0  0  0  0  0  0  0  0  0  0
  -21.4847  -13.2032   -7.9155 H   0  0  0  0  0  0  0  0  0  0  0  0
  -22.1688  -14.4136   -9.0026 H   0  0  0  0  0  0  0  0  0  0  0  0
  -20.0596  -15.4066   -8.4852 H   0  0  0  0  0  0  0  0  0  0  0  0
  -19.2261  -13.8624   -8.3392 H   0  0  0  0  0  0  0  0  0  0  0  0
  -20.1469  -15.3392  -10.8147 H   0  0  0  0  0  0  0  0  0  0  0  0
  -18.5738  -14.5955  -10.5094 H   0  0  0  0  0  0  0  0  0  0  0  0
  -19.3684  -12.4302  -11.0081 H   0  0  0  0  0  0  0  0  0  0  0  0
  -20.5502  -13.3281  -11.9738 H   0  0  0  0  0  0  0  0  0  0  0  0
  -25.2653  -10.3039  -10.9498 H   0  0  0  0  0  0  0  0  0  0  0  0
  -23.1376  -10.0607   -7.6275 H   0  0  0  0  0  0  0  0  0  0  0  0
  -26.5689  -14.9133  -15.8243 H   0  0  0  0  0  0  0  0  0  0  0  0
  -25.2205  -18.9679  -14.1102 H   0  0  0  0  0  0  0  0  0  0  0  0
  -24.9052  -21.7864  -12.1301 H   0  0  0  0  0  0  0  0  0  0  0  0
  -25.2769  -20.5592  -13.3880 H   0  0  0  0  0  0  0  0  0  0  0  0
  -23.6851  -21.3916  -13.3880 H   0  0  0  0  0  0  0  0  0  0  0  0
  -23.4092  -18.1054  -10.3057 H   0  0  0  0  0  0  0  0  0  0  0  0
  -23.6735  -15.6995  -10.6839 H   0  0  0  0  0  0  0  0  0  0  0  0
 17 12  1  0
 17  2  2  0
 12 18  2  0
  2 11  1  0
 18 19  1  0
 18 25  1  0
 19 20  2  0
 11 25  2  0
 11 10  1  0
 22 21  1  0
 25 24  1  0
 20 21  1  0
 20 23  1  0
 10  1  2  0
 10  5  1  0
  1 13  1  0
 24 23  2  0
  5  3  2  0
 13 16  2  0
  9  8  1  0
  9  4  1  0
  3 16  1  0
  3  4  1  0
 16 15  1  0
  8  7  1  0
 26 15  2  0
  4  6  1  0
 15 14  1  0
  7  6  1  0
  1 27  1  0
  2 28  1  0
  4 29  1  0
  5 30  1  0
  6 31  1  0
  6 32  1  0
  7 33  1  0
  7 34  1  0
  8 35  1  0
  8 36  1  0
  9 37  1  0
  9 38  1  0
 13 39  1  0
 14 40  1  0
 17 41  1  0
 19 42  1  0
 22 43  1  0
 22 44  1  0
 22 45  1  0
 23 46  1  0
 24 47  1  0
A    1
C4
A    2
C14
A    3
C5
A    4
C6
A    5
C11
A    6
C7
A    7
C8
A    8
C9
A    9
C10
A   10
C12
A   11
C13
A   12
N1
A   13
C3
A   14
O1
A   15
C1
A   16
C2
A   17
C15
A   18
C16
A   19
C17
A   20
C18
A   21
O2
A   22
C19
A   23
C20
A   24
C21
A   25
C22
A   26
O3
M  END
