5V0U_8QG_A_801
     RDKit          3D

 16 17  0  0  0  0  0  0  0  0999 V2000
  -28.5100  -47.0710   61.2320 C   0  0  0  0  0  0  0  0  0  0  0  0
  -30.8750  -42.8260   62.3730 C   0  0  0  0  0  0  0  0  0  0  0  0
  -31.1340  -43.3680   61.1910 C   0  0  0  0  0  0  0  0  0  0  0  0
  -30.5410  -44.6740   61.0350 C   0  0  0  0  0  0  0  0  0  0  0  0
  -29.8420  -45.1040   62.0950 C   0  0  0  0  0  0  0  0  0  0  0  0
  -29.1430  -46.3650   62.2200 C   0  0  0  0  0  0  0  0  0  0  0  0
  -28.9660  -47.1530   63.3940 C   0  0  0  0  0  0  0  0  0  0  0  0
  -28.2810  -48.2440   63.1380 N   0  0  0  0  0  0  0  0  0  0  0  0
  -27.9990  -48.1900   61.7860 N   0  0  0  0  0  0  0  0  0  0  0  0
  -29.8690  -43.8640   63.4320 S   0  0  0  0  0  0  0  0  0  0  0  0
  -31.4470  -41.2300   62.9220 Cl  0  0  0  0  0  0  0  0  0  0  0  0
  -28.4320  -46.7779   60.1746 H   0  0  0  0  0  0  0  0  0  0  0  0
  -31.7360  -42.8752   60.4133 H   0  0  0  0  0  0  0  0  0  0  0  0
  -30.6537  -45.2705   60.1177 H   0  0  0  0  0  0  0  0  0  0  0  0
  -29.3534  -46.8823   64.3873 H   0  0  0  0  0  0  0  0  0  0  0  0
  -28.0113  -48.9827   63.8032 H   0  0  0  0  0  0  0  0  0  0  0  0
  4  3  1  0
  4  5  2  0
  3  2  2  0
  1  9  2  0
  1  6  1  0
  9  8  1  0
  5  6  1  0
  5 10  1  0
  6  7  2  0
  2 11  1  0
  2 10  1  0
  8  7  1  0
  1 12  1  0
  3 13  1  0
  4 14  1  0
  7 15  1  0
  8 16  1  0
A    1
C11
A    2
C02
A    3
C03
A    4
C04
A    5
C05
A    6
C07
A    7
C08
A    8
N09
A    9
N10
A   10
S06
A   11
CL
M  END
