5V0V_8QS_A_614
     RDKit          3D

 42 44  0  0  0  0  0  0  0  0999 V2000
   18.8840   64.3660   10.0020 C   0  0  0  0  0  0  0  0  0  0  0  0
   19.6420   64.6550   11.2970 C   0  0  0  0  0  0  0  0  0  0  0  0
   22.1030   63.8920   13.7440 O   0  0  0  0  0  0  0  0  0  0  0  0
   22.7730   63.3470   12.8830 C   0  0  0  0  0  0  0  0  0  0  0  0
   24.0110   62.9740   13.0660 O   0  0  0  0  0  0  0  0  0  0  0  0
   22.2790   63.0370   11.4940 C   0  0  0  0  0  0  0  0  0  0  0  0
   20.8310   62.5410   11.3870 C   0  0  0  0  0  0  0  0  0  0  0  0
   20.7240   61.1530   12.0220 C   0  0  0  0  0  0  0  0  0  0  0  0
   19.3340   60.5460   11.9970 C   0  0  0  0  0  0  0  0  0  0  0  0
   20.4810   62.4260    9.9210 C   0  0  0  0  0  0  0  0  0  0  0  0
   20.9770   61.5020    9.0280 N   0  0  0  0  0  0  0  0  0  0  0  0
   20.3880   61.7180    7.7980 C   0  0  0  0  0  0  0  0  0  0  0  0
   20.5580   61.0550    6.5780 C   0  0  0  0  0  0  0  0  0  0  0  0
   21.5450   59.9170    6.4310 C   0  0  0  0  0  0  0  0  0  0  0  0
   21.1510   58.7690    5.5430 C   0  0  0  0  0  0  0  0  0  0  0  0
   19.9170   63.4530   12.0410 O   0  0  0  0  0  0  0  0  0  0  0  0
   19.5850   63.2430    9.2940 C   0  0  0  0  0  0  0  0  0  0  0  0
   19.5020   62.8070    7.9290 C   0  0  0  0  0  0  0  0  0  0  0  0
   18.7750   63.2310    6.8170 C   0  0  0  0  0  0  0  0  0  0  0  0
   18.9360   62.5770    5.6060 C   0  0  0  0  0  0  0  0  0  0  0  0
   19.8130   61.5080    5.4880 C   0  0  0  0  0  0  0  0  0  0  0  0
   18.8781   65.2628    9.3650 H   0  0  0  0  0  0  0  0  0  0  0  0
   17.8431   64.0874   10.2229 H   0  0  0  0  0  0  0  0  0  0  0  0
   20.5951   65.1449   11.0488 H   0  0  0  0  0  0  0  0  0  0  0  0
   19.0115   65.3046   11.9219 H   0  0  0  0  0  0  0  0  0  0  0  0
   22.3006   63.7312   14.7007 H   0  0  0  0  0  0  0  0  0  0  0  0
   22.9324   62.2600   11.0706 H   0  0  0  0  0  0  0  0  0  0  0  0
   22.3043   63.9935   10.9514 H   0  0  0  0  0  0  0  0  0  0  0  0
   21.4023   60.4765   11.4815 H   0  0  0  0  0  0  0  0  0  0  0  0
   20.9880   61.2772   13.0826 H   0  0  0  0  0  0  0  0  0  0  0  0
   18.9824   60.3924   13.0279 H   0  0  0  0  0  0  0  0  0  0  0  0
   18.6464   61.2258   11.4725 H   0  0  0  0  0  0  0  0  0  0  0  0
   19.3653   59.5796   11.4725 H   0  0  0  0  0  0  0  0  0  0  0  0
   21.6713   60.7719    9.2420 H   0  0  0  0  0  0  0  0  0  0  0  0
   21.7297   59.5087    7.4356 H   0  0  0  0  0  0  0  0  0  0  0  0
   22.4202   60.3658    5.9385 H   0  0  0  0  0  0  0  0  0  0  0  0
   20.8562   57.9099    6.1635 H   0  0  0  0  0  0  0  0  0  0  0  0
   20.3048   59.0703    4.9080 H   0  0  0  0  0  0  0  0  0  0  0  0
   22.0038   58.4872    4.9080 H   0  0  0  0  0  0  0  0  0  0  0  0
   18.0788   64.0785    6.9006 H   0  0  0  0  0  0  0  0  0  0  0  0
   18.3621   62.9090    4.7282 H   0  0  0  0  0  0  0  0  0  0  0  0
   19.9234   61.0071    4.5149 H   0  0  0  0  0  0  0  0  0  0  0  0
 21 20  2  0
 21 13  1  0
 15 14  1  0
 20 19  1  0
 14 13  1  0
 13 12  2  0
 19 18  2  0
 12 18  1  0
 12 11  1  0
 18 17  1  0
 11 10  1  0
 17 10  2  0
 17  1  1  0
 10  7  1  0
  1  2  1  0
  2 16  1  0
  7  6  1  0
  7  8  1  0
  7 16  1  0
  6  4  1  0
  9  8  1  0
  4  5  2  0
  4  3  1  0
  1 22  1  0
  1 23  1  0
  2 24  1  0
  2 25  1  0
  3 26  1  0
  6 27  1  0
  6 28  1  0
  8 29  1  0
  8 30  1  0
  9 31  1  0
  9 32  1  0
  9 33  1  0
 11 34  1  0
 14 35  1  0
 14 36  1  0
 15 37  1  0
 15 38  1  0
 15 39  1  0
 19 40  1  0
 20 41  1  0
 21 42  1  0
A    1
C10
A    2
C11
A    3
O1
A    4
C16
A    5
O2
A    6
C15
A    7
C12
A    8
C13
A    9
C14
A   10
C8
A   11
N
A   12
C7
A   13
C2
A   14
C1
A   15
C
A   16
O
A   17
C9
A   18
C6
A   19
C5
A   20
C4
A   21
C3
M  END
