5V18_8UY_A_503
     RDKit          3D

 25 27  0  0  0  0  0  0  0  0999 V2000
   28.5870   56.0650    3.9860 N   0  0  0  0  0  0  0  0  0  0  0  0
   28.7610   55.1790    0.6300 C   0  0  0  0  0  0  0  0  0  0  0  0
   28.5630   55.1820   -0.7400 C   0  0  0  0  0  0  0  0  0  0  0  0
   27.7580   56.1850   -1.3110 C   0  0  0  0  0  0  0  0  0  0  0  0
   27.1570   57.1590   -0.4900 C   0  0  0  0  0  0  0  0  0  0  0  0
   27.3600   57.1530    0.8740 C   0  0  0  0  0  0  0  0  0  0  0  0
   27.1270   55.1120   -3.5060 C   0  0  0  0  0  0  0  0  0  0  0  0
   27.4640   57.5820   -4.7590 C   0  0  0  0  0  0  0  0  0  0  0  0
   28.0690   59.5230   -3.9760 C   0  0  0  0  0  0  0  0  0  0  0  0
   28.4060   56.0950    2.8590 C   0  0  0  0  0  0  0  0  0  0  0  0
   28.1670   56.1530    1.4460 C   0  0  0  0  0  0  0  0  0  0  0  0
   27.5180   56.2390   -2.7770 C   0  0  0  0  0  0  0  0  0  0  0  0
   26.9100   55.2380   -4.8910 C   0  0  0  0  0  0  0  0  0  0  0  0
   27.0650   56.4510   -5.5150 C   0  0  0  0  0  0  0  0  0  0  0  0
   27.7050   58.8510   -5.0650 N   0  0  0  0  0  0  0  0  0  0  0  0
   28.0680   58.7220   -2.9490 N   0  0  0  0  0  0  0  0  0  0  0  0
   27.6840   57.4500   -3.4160 N   0  0  0  0  0  0  0  0  0  0  0  0
   29.3929   54.4020    1.0850 H   0  0  0  0  0  0  0  0  0  0  0  0
   29.0280   54.4118   -1.3729 H   0  0  0  0  0  0  0  0  0  0  0  0
   26.5188   57.9328   -0.9417 H   0  0  0  0  0  0  0  0  0  0  0  0
   26.8955   57.9224    1.5082 H   0  0  0  0  0  0  0  0  0  0  0  0
   26.9911   54.1421   -3.0051 H   0  0  0  0  0  0  0  0  0  0  0  0
   28.3306   60.5911   -3.9474 H   0  0  0  0  0  0  0  0  0  0  0  0
   26.6136   54.3567   -5.4787 H   0  0  0  0  0  0  0  0  0  0  0  0
   26.8807   56.5448   -6.5954 H   0  0  0  0  0  0  0  0  0  0  0  0
  1 10  3  0
 10 11  1  0
 11  2  2  0
 11  6  1  0
  2  3  1  0
  6  5  2  0
  3  4  2  0
  5  4  1  0
  4 12  1  0
 12  7  2  0
 12 17  1  0
  7 13  1  0
 17 16  1  0
 17  8  1  0
 16  9  2  0
 13 14  2  0
  8 14  1  0
  8 15  2  0
  9 15  1  0
  2 18  1  0
  3 19  1  0
  5 20  1  0
  6 21  1  0
  7 22  1  0
  9 23  1  0
 13 24  1  0
 14 25  1  0
A    1
N1
A    2
C4
A    3
C5
A    4
C6
A    5
C7
A    6
C8
A    7
C10
A    8
C13
A    9
C15
A   10
C2
A   11
C3
A   12
C9
A   13
C11
A   14
C12
A   15
N14
A   16
N16
A   17
N17
M  END
