5U6S_7WV_A_504
     RDKit          3D

 15 15  0  0  0  0  0  0  0  0999 V2000
  -15.3560   11.9710   -1.0620 C   0  0  0  0  0  0  0  0  0  0  0  0
  -15.2540   13.2840   -0.5870 C   0  0  0  0  0  0  0  0  0  0  0  0
  -15.3820   13.5510    0.7540 C   0  0  0  0  0  0  0  0  0  0  0  0
  -15.6060   12.4780    1.6110 C   0  0  0  0  0  0  0  0  0  0  0  0
  -15.7170   11.1540    1.1830 C   0  0  0  0  0  0  0  0  0  0  0  0
  -15.5840   10.9170   -0.1830 C   0  0  0  0  0  0  0  0  0  0  0  0
  -15.9720    9.9380    2.1310 C   0  0  0  0  0  0  0  0  0  0  0  0
  -15.4720    8.8660    1.7220 O   0  0  0  0  0  0  0  0  0  0  0  0
  -16.6360   10.1090    3.1810 O   0  0  0  0  0  0  0  0  0  0  0  0
  -15.7760   12.9280    3.5340 Br  0  0  0  0  0  0  0  0  0  0  0  0
  -15.2551   11.7711   -2.1390 H   0  0  0  0  0  0  0  0  0  0  0  0
  -15.0701   14.1074   -1.2928 H   0  0  0  0  0  0  0  0  0  0  0  0
  -15.3098   14.5793    1.1380 H   0  0  0  0  0  0  0  0  0  0  0  0
  -15.6597    9.8899   -0.5693 H   0  0  0  0  0  0  0  0  0  0  0  0
  -16.2029    9.9975    4.0642 H   0  0  0  0  0  0  0  0  0  0  0  0
  8  7  2  0
 10  4  1  0
  7  9  1  0
  7  5  1  0
  5  4  2  0
  5  6  1  0
  4  3  1  0
  6  1  2  0
  3  2  2  0
  1  2  1  0
  1 11  1  0
  2 12  1  0
  3 13  1  0
  6 14  1  0
  9 15  1  0
A    1
C01
A    2
C02
A    3
C03
A    4
C04
A    5
C05
A    6
C06
A    7
C07
A    8
O08
A    9
O09
A   10
BR1
M  END
