5V5Y_8X7_A_601
     RDKit          3D

 69 73  0  0  0  0  0  0  0  0999 V2000
   24.6000    5.7300  -14.3420 C   0  0  0  0  0  0  0  0  0  0  0  0
   24.4740    5.2780  -12.9290 N   0  0  0  0  0  0  0  0  0  0  0  0
   23.1160    4.7520  -12.6350 C   0  0  0  0  0  0  0  0  0  0  0  0
   22.9690    4.0900  -11.2420 C   0  0  0  0  0  0  0  0  0  0  0  0
   24.1270    3.3510  -10.7560 N   0  0  0  0  0  0  0  0  0  0  0  0
   25.4260    3.9310  -11.0610 C   0  0  0  0  0  0  0  0  0  0  0  0
   25.5610    4.3360  -12.5390 C   0  0  0  0  0  0  0  0  0  0  0  0
   23.9680    2.5790   -9.6070 C   0  0  0  0  0  0  0  0  0  0  0  0
   22.8760    2.7790   -8.7250 C   0  0  0  0  0  0  0  0  0  0  0  0
   22.7170    2.0090   -7.5690 C   0  0  0  0  0  0  0  0  0  0  0  0
   23.6440    0.9960   -7.2340 C   0  0  0  0  0  0  0  0  0  0  0  0
   23.5810    0.1760   -6.1370 N   0  0  0  0  0  0  0  0  0  0  0  0
   22.8230    0.3270   -5.0270 C   0  0  0  0  0  0  0  0  0  0  0  0
   22.7820   -0.6880   -4.1220 N   0  0  0  0  0  0  0  0  0  0  0  0
   22.0430   -0.6210   -2.9860 C   0  0  0  0  0  0  0  0  0  0  0  0
   21.3070    0.5420   -2.7540 C   0  0  0  0  0  0  0  0  0  0  0  0
   20.4430    0.9600   -1.7140 C   0  0  0  0  0  0  0  0  0  0  0  0
   20.0530    0.3990   -0.6380 O   0  0  0  0  0  0  0  0  0  0  0  0
   20.0270    2.1910   -2.0810 N   0  0  0  0  0  0  0  0  0  0  0  0
   19.1860    2.9590   -1.2170 C   0  0  0  0  0  0  0  0  0  0  0  0
   20.1830    3.7770   -0.5390 C   0  0  0  0  0  0  0  0  0  0  0  0
   20.9740    3.3530    0.4660 C   0  0  0  0  0  0  0  0  0  0  0  0
   20.6160    2.5920   -3.2060 N   0  0  0  0  0  0  0  0  0  0  0  0
   21.3550    1.5720   -3.6610 C   0  0  0  0  0  0  0  0  0  0  0  0
   22.1040    1.4520   -4.7780 N   0  0  0  0  0  0  0  0  0  0  0  0
   20.3720    3.6930   -3.9750 C   0  0  0  0  0  0  0  0  0  0  0  0
   19.1100    4.1780   -3.8410 N   0  0  0  0  0  0  0  0  0  0  0  0
   18.5580    5.2170   -4.5190 C   0  0  0  0  0  0  0  0  0  0  0  0
   19.3620    5.8170   -5.5130 C   0  0  0  0  0  0  0  0  0  0  0  0
   20.6640    5.3270   -5.7440 C   0  0  0  0  0  0  0  0  0  0  0  0
   21.1750    4.2430   -5.0030 C   0  0  0  0  0  0  0  0  0  0  0  0
   17.1590    5.6460   -4.1860 C   0  0  0  0  0  0  0  0  0  0  0  0
   16.5750    6.7170   -5.1440 C   0  0  0  0  0  0  0  0  0  0  0  0
   17.0800    6.1400   -2.7170 C   0  0  0  0  0  0  0  0  0  0  0  0
   16.2810    4.5230   -4.2880 O   0  0  0  0  0  0  0  0  0  0  0  0
   24.7340    0.7880   -8.0970 C   0  0  0  0  0  0  0  0  0  0  0  0
   24.8900    1.5630   -9.2530 C   0  0  0  0  0  0  0  0  0  0  0  0
   24.8953    6.7894  -14.3631 H   0  0  0  0  0  0  0  0  0  0  0  0
   25.3640    5.1261  -14.8534 H   0  0  0  0  0  0  0  0  0  0  0  0
   23.6337    5.6084  -14.8534 H   0  0  0  0  0  0  0  0  0  0  0  0
   22.4038    5.5882  -12.6945 H   0  0  0  0  0  0  0  0  0  0  0  0
   22.9191    3.9643  -13.3771 H   0  0  0  0  0  0  0  0  0  0  0  0
   22.7483    4.8848  -10.5142 H   0  0  0  0  0  0  0  0  0  0  0  0
   22.1688    3.3436  -11.3535 H   0  0  0  0  0  0  0  0  0  0  0  0
   26.2059    3.1918  -10.8257 H   0  0  0  0  0  0  0  0  0  0  0  0
   25.5345    4.8424  -10.4547 H   0  0  0  0  0  0  0  0  0  0  0  0
   25.5005    3.4350  -13.1672 H   0  0  0  0  0  0  0  0  0  0  0  0
   26.5302    4.8364  -12.6812 H   0  0  0  0  0  0  0  0  0  0  0  0
   22.1357    3.5592   -8.9560 H   0  0  0  0  0  0  0  0  0  0  0  0
   21.8565    2.1945   -6.9094 H   0  0  0  0  0  0  0  0  0  0  0  0
   24.1853   -0.6577   -6.1611 H   0  0  0  0  0  0  0  0  0  0  0  0
   22.0245   -1.4565   -2.2708 H   0  0  0  0  0  0  0  0  0  0  0  0
   18.4732    3.5746   -1.7853 H   0  0  0  0  0  0  0  0  0  0  0  0
   18.5483    2.3629   -0.5476 H   0  0  0  0  0  0  0  0  0  0  0  0
   20.2986    4.8188   -0.8726 H   0  0  0  0  0  0  0  0  0  0  0  0
   21.7016    4.0412    0.9211 H   0  0  0  0  0  0  0  0  0  0  0  0
   20.8922    2.3187    0.8314 H   0  0  0  0  0  0  0  0  0  0  0  0
   18.9752    6.6609   -6.1031 H   0  0  0  0  0  0  0  0  0  0  0  0
   21.2908    5.7987   -6.5151 H   0  0  0  0  0  0  0  0  0  0  0  0
   22.1733    3.8341   -5.2180 H   0  0  0  0  0  0  0  0  0  0  0  0
   16.1303    7.5325   -4.5548 H   0  0  0  0  0  0  0  0  0  0  0  0
   17.3788    7.1190   -5.7783 H   0  0  0  0  0  0  0  0  0  0  0  0
   15.8017    6.2590   -5.7783 H   0  0  0  0  0  0  0  0  0  0  0  0
   17.2164    5.2873   -2.0356 H   0  0  0  0  0  0  0  0  0  0  0  0
   17.8707    6.8833   -2.5371 H   0  0  0  0  0  0  0  0  0  0  0  0
   16.0969    6.5996   -2.5371 H   0  0  0  0  0  0  0  0  0  0  0  0
   16.0372    4.2112   -3.3806 H   0  0  0  0  0  0  0  0  0  0  0  0
   25.4727    0.0077   -7.8617 H   0  0  0  0  0  0  0  0  0  0  0  0
   25.7552    1.3772   -9.9064 H   0  0  0  0  0  0  0  0  0  0  0  0
  1  2  1  0
  2  3  1  0
  2  7  1  0
  3  4  1  0
  7  6  1  0
  4  5  1  0
  6  5  1  0
  5  8  1  0
  8 37  1  0
  8  9  2  0
 37 36  2  0
  9 10  1  0
 36 11  1  0
 10 11  2  0
 11 12  1  0
 12 13  1  0
 30 29  2  0
 30 31  1  0
 29 28  1  0
 33 32  1  0
 13 25  1  0
 13 14  2  0
 31 26  2  0
 25 24  2  0
 28 32  1  0
 28 27  2  0
 35 32  1  0
 32 34  1  0
 14 15  1  0
 26 27  1  0
 26 23  1  0
 24 23  1  0
 24 16  1  0
 23 19  1  0
 15 16  2  0
 16 17  1  0
 19 17  1  0
 19 20  1  0
 17 18  2  0
 20 21  1  0
 21 22  2  3
  1 38  1  0
  1 39  1  0
  1 40  1  0
  3 41  1  0
  3 42  1  0
  4 43  1  0
  4 44  1  0
  6 45  1  0
  6 46  1  0
  7 47  1  0
  7 48  1  0
  9 49  1  0
 10 50  1  0
 12 51  1  0
 15 52  1  0
 20 53  1  0
 20 54  1  0
 21 55  1  0
 22 56  1  0
 22 57  1  0
 29 58  1  0
 30 59  1  0
 31 60  1  0
 33 61  1  0
 33 62  1  0
 33 63  1  0
 34 64  1  0
 34 65  1  0
 34 66  1  0
 35 67  1  0
 36 68  1  0
 37 69  1  0
A    1
C01
A    2
N02
A    3
C03
A    4
C04
A    5
N05
A    6
C06
A    7
C07
A    8
C08
A    9
C09
A   10
C10
A   11
C11
A   12
N12
A   13
C13
A   14
N14
A   15
C15
A   16
C16
A   17
C17
A   18
O18
A   19
N19
A   20
C20
A   21
C21
A   22
C22
A   23
N23
A   24
C24
A   25
N25
A   26
C26
A   27
N27
A   28
C28
A   29
C29
A   30
C30
A   31
C31
A   32
C32
A   33
C33
A   34
C34
A   35
O35
A   36
C36
A   37
C37
M  END
