5V7T_91V_A_1801
     RDKit          3D

 66 70  0  0  0  0  0  0  0  0999 V2000
  -16.7200    9.5200  -27.6480 C   0  0  0  0  0  0  0  0  0  0  0  0
  -18.0050    9.8900  -28.3980 C   0  0  0  0  0  0  0  0  0  0  0  0
  -17.7390   10.8620  -29.5690 C   0  0  0  0  0  0  0  0  0  0  0  0
  -16.2290   11.0920  -29.7960 C   0  0  0  0  0  0  0  0  0  0  0  0
  -21.0710    9.5500  -30.8780 C   0  0  0  0  0  0  0  0  0  0  0  0
  -22.7520    7.8490  -31.2130 C   0  0  0  0  0  0  0  0  0  0  0  0
  -20.4140    7.3030  -31.3650 C   0  0  0  0  0  0  0  0  0  0  0  0
  -15.6460    7.6450  -32.9520 C   0  0  0  0  0  0  0  0  0  0  0  0
  -16.1070    7.6660  -34.2600 C   0  0  0  0  0  0  0  0  0  0  0  0
  -17.3860    8.1330  -34.5320 C   0  0  0  0  0  0  0  0  0  0  0  0
  -13.8620   11.4260  -22.9160 C   0  0  0  0  0  0  0  0  0  0  0  0
  -11.8830   12.7450  -22.0940 C   0  0  0  0  0  0  0  0  0  0  0  0
   -9.6400   12.8310  -21.1740 C   0  0  0  0  0  0  0  0  0  0  0  0
  -13.9060   10.5040  -24.1350 C   0  0  0  0  0  0  0  0  0  0  0  0
  -15.0700   10.9120  -25.0350 C   0  0  0  0  0  0  0  0  0  0  0  0
  -14.8170   10.4070  -26.4590 C   0  0  0  0  0  0  0  0  0  0  0  0
  -15.9670   10.7410  -27.3140 N   0  0  0  0  0  0  0  0  0  0  0  0
  -15.5500   11.5400  -28.4910 C   0  0  0  0  0  0  0  0  0  0  0  0
  -18.3830   10.4470  -30.7950 O   0  0  0  0  0  0  0  0  0  0  0  0
  -18.5860    9.0350  -31.0240 C   0  0  0  0  0  0  0  0  0  0  0  0
  -20.0550    8.6240  -31.0970 C   0  0  0  0  0  0  0  0  0  0  0  0
  -22.4070    9.1630  -30.9390 C   0  0  0  0  0  0  0  0  0  0  0  0
  -21.7500    6.9160  -31.4270 C   0  0  0  0  0  0  0  0  0  0  0  0
  -17.7290    8.5540  -32.1780 C   0  0  0  0  0  0  0  0  0  0  0  0
  -16.4490    8.0870  -31.9110 C   0  0  0  0  0  0  0  0  0  0  0  0
  -18.1900    8.5830  -33.4920 C   0  0  0  0  0  0  0  0  0  0  0  0
  -12.7060   12.2960  -23.1150 N   0  0  0  0  0  0  0  0  0  0  0  0
  -10.5080   12.4050  -22.1370 C   0  0  0  0  0  0  0  0  0  0  0  0
  -10.1560   13.6350  -20.1400 C   0  0  0  0  0  0  0  0  0  0  0  0
   -9.6040   14.2030  -19.0810 N   0  0  0  0  0  0  0  0  0  0  0  0
  -10.5160   14.8510  -18.4480 N   0  0  0  0  0  0  0  0  0  0  0  0
  -11.6820   14.7260  -19.0410 C   0  0  0  0  0  0  0  0  0  0  0  0
  -11.5030   13.9620  -20.1290 N   0  0  0  0  0  0  0  0  0  0  0  0
  -12.3630   13.5000  -21.1290 N   0  0  0  0  0  0  0  0  0  0  0  0
  -16.9788    8.9860  -26.7218 H   0  0  0  0  0  0  0  0  0  0  0  0
  -16.0997    8.8747  -28.2874 H   0  0  0  0  0  0  0  0  0  0  0  0
  -18.7016   10.3672  -27.6930 H   0  0  0  0  0  0  0  0  0  0  0  0
  -18.4293    8.9655  -28.8167 H   0  0  0  0  0  0  0  0  0  0  0  0
  -18.1892   11.8209  -29.2727 H   0  0  0  0  0  0  0  0  0  0  0  0
  -15.7679   10.1547  -30.1406 H   0  0  0  0  0  0  0  0  0  0  0  0
  -16.0991   11.8794  -30.5530 H   0  0  0  0  0  0  0  0  0  0  0  0
  -20.8161   10.5965  -30.6548 H   0  0  0  0  0  0  0  0  0  0  0  0
  -23.8095    7.5500  -31.2601 H   0  0  0  0  0  0  0  0  0  0  0  0
  -19.6267    6.5528  -31.5305 H   0  0  0  0  0  0  0  0  0  0  0  0
  -14.6329    7.2739  -32.7380 H   0  0  0  0  0  0  0  0  0  0  0  0
  -15.4619    7.3141  -35.0786 H   0  0  0  0  0  0  0  0  0  0  0  0
  -17.7610    8.1466  -35.5660 H   0  0  0  0  0  0  0  0  0  0  0  0
  -14.7840   12.0227  -22.8539 H   0  0  0  0  0  0  0  0  0  0  0  0
  -13.7815   10.8545  -21.9795 H   0  0  0  0  0  0  0  0  0  0  0  0
   -8.5754   12.5560  -21.2046 H   0  0  0  0  0  0  0  0  0  0  0  0
  -14.0443    9.4641  -23.8043 H   0  0  0  0  0  0  0  0  0  0  0  0
  -12.9620   10.5866  -24.6936 H   0  0  0  0  0  0  0  0  0  0  0  0
  -15.1585   12.0084  -25.0453 H   0  0  0  0  0  0  0  0  0  0  0  0
  -16.0020   10.4720  -24.6505 H   0  0  0  0  0  0  0  0  0  0  0  0
  -14.6791    9.3158  -26.4411 H   0  0  0  0  0  0  0  0  0  0  0  0
  -13.9122   10.8866  -26.8608 H   0  0  0  0  0  0  0  0  0  0  0  0
  -14.4610   11.4430  -28.6119 H   0  0  0  0  0  0  0  0  0  0  0  0
  -15.8528   12.5809  -28.3045 H   0  0  0  0  0  0  0  0  0  0  0  0
  -18.2344    8.4983  -30.1305 H   0  0  0  0  0  0  0  0  0  0  0  0
  -23.1975    9.9085  -30.7678 H   0  0  0  0  0  0  0  0  0  0  0  0
  -22.0101    5.8698  -31.6458 H   0  0  0  0  0  0  0  0  0  0  0  0
  -16.0730    8.0676  -30.8774 H   0  0  0  0  0  0  0  0  0  0  0  0
  -19.1986    8.9652  -33.7081 H   0  0  0  0  0  0  0  0  0  0  0  0
  -12.4882   12.5953  -24.0762 H   0  0  0  0  0  0  0  0  0  0  0  0
  -10.1324   11.7846  -22.9641 H   0  0  0  0  0  0  0  0  0  0  0  0
  -12.6322   15.1676  -18.7061 H   0  0  0  0  0  0  0  0  0  0  0  0
 10  9  1  0
 10 26  2  0
  9  8  2  0
 26 24  1  0
  8 25  1  0
 24 25  2  0
 24 20  1  0
 23  7  2  0
 23  6  1  0
  7 21  1  0
  6 22  2  0
 21 20  1  0
 21  5  2  0
 20 19  1  0
 22  5  1  0
 19  3  1  0
  4  3  1  0
  4 18  1  0
  3  2  1  0
 18 17  1  0
  2  1  1  0
  1 17  1  0
 17 16  1  0
 16 15  1  0
 15 14  1  0
 14 11  1  0
 27 11  1  0
 27 12  1  0
 28 12  1  0
 28 13  2  0
 12 34  2  0
 13 29  1  0
 34 33  1  0
 29 33  1  0
 29 30  2  0
 33 32  1  0
 30 31  1  0
 32 31  2  0
  1 35  1  0
  1 36  1  0
  2 37  1  0
  2 38  1  0
  3 39  1  0
  4 40  1  0
  4 41  1  0
  5 42  1  0
  6 43  1  0
  7 44  1  0
  8 45  1  0
  9 46  1  0
 10 47  1  0
 11 48  1  0
 11 49  1  0
 13 50  1  0
 14 51  1  0
 14 52  1  0
 15 53  1  0
 15 54  1  0
 16 55  1  0
 16 56  1  0
 18 57  1  0
 18 58  1  0
 20 59  1  0
 22 60  1  0
 23 61  1  0
 25 62  1  0
 26 63  1  0
 27 64  1  0
 28 65  1  0
 32 66  1  0
A    1
C5
A    2
C6
A    3
C7
A    4
C8
A    5
C13
A    6
C15
A    7
C17
A    8
C20
A    9
C21
A   10
C22
A   11
C24
A   12
C26
A   13
C28
A   14
C1
A   15
C2
A   16
C3
A   17
N4
A   18
C9
A   19
O10
A   20
C11
A   21
C12
A   22
C14
A   23
C16
A   24
C18
A   25
C19
A   26
C23
A   27
N25
A   28
C27
A   29
C29
A   30
N30
A   31
N31
A   32
C32
A   33
N33
A   34
N34
M  END
