5V8H_8ZJ_A_602
     RDKit          3D

 33 35  0  0  0  0  0  0  0  0999 V2000
  -30.0670   20.7030  -23.9970 C   0  0  0  0  0  0  0  0  0  0  0  0
  -30.1200   15.6700  -24.8220 C   0  0  0  0  0  0  0  0  0  0  0  0
  -28.5580   15.9310  -20.5080 O   0  0  0  0  0  0  0  0  0  0  0  0
  -29.1100   16.6130  -21.5970 C   0  0  0  0  0  0  0  0  0  0  0  0
  -29.2620   17.9740  -21.5620 C   0  0  0  0  0  0  0  0  0  0  0  0
  -29.7940   18.6280  -22.6580 C   0  0  0  0  0  0  0  0  0  0  0  0
  -29.9480   20.1300  -22.7350 C   0  0  0  0  0  0  0  0  0  0  0  0
  -29.9020   20.9140  -21.5890 C   0  0  0  0  0  0  0  0  0  0  0  0
  -30.0330   22.2800  -21.6910 C   0  0  0  0  0  0  0  0  0  0  0  0
  -30.1000   22.8360  -22.9380 C   0  0  0  0  0  0  0  0  0  0  0  0
  -30.1450   22.0720  -24.1020 C   0  0  0  0  0  0  0  0  0  0  0  0
  -30.0550   17.9470  -23.7650 N   0  0  0  0  0  0  0  0  0  0  0  0
  -29.8880   16.5890  -23.7970 C   0  0  0  0  0  0  0  0  0  0  0  0
  -30.7090   16.0280  -26.1790 C   0  0  0  0  0  0  0  0  0  0  0  0
  -31.3560   17.3220  -26.3610 N   0  0  0  0  0  0  0  0  0  0  0  0
  -31.9350   17.6570  -27.6350 C   0  0  0  0  0  0  0  0  0  0  0  0
  -30.6610   15.2240  -27.0520 O   0  0  0  0  0  0  0  0  0  0  0  0
  -29.8050   14.4300  -24.3340 C   0  0  0  0  0  0  0  0  0  0  0  0
  -29.3670   14.5930  -23.0280 C   0  0  0  0  0  0  0  0  0  0  0  0
  -29.4330   15.9370  -22.7290 N   0  0  0  0  0  0  0  0  0  0  0  0
  -30.0982   20.0710  -24.8968 H   0  0  0  0  0  0  0  0  0  0  0  0
  -28.7826   16.2086  -19.5846 H   0  0  0  0  0  0  0  0  0  0  0  0
  -28.9631   18.5422  -20.6688 H   0  0  0  0  0  0  0  0  0  0  0  0
  -29.7614   20.4447  -20.6041 H   0  0  0  0  0  0  0  0  0  0  0  0
  -30.0826   22.9097  -20.7904 H   0  0  0  0  0  0  0  0  0  0  0  0
  -30.1192   23.9323  -23.0260 H   0  0  0  0  0  0  0  0  0  0  0  0
  -30.2411   22.5543  -25.0859 H   0  0  0  0  0  0  0  0  0  0  0  0
  -31.3984   17.9934  -25.5810 H   0  0  0  0  0  0  0  0  0  0  0  0
  -32.8773   18.2022  -27.4775 H   0  0  0  0  0  0  0  0  0  0  0  0
  -31.2354   18.2898  -28.2007 H   0  0  0  0  0  0  0  0  0  0  0  0
  -32.1349   16.7350  -28.2007 H   0  0  0  0  0  0  0  0  0  0  0  0
  -29.8848   13.4777  -24.8787 H   0  0  0  0  0  0  0  0  0  0  0  0
  -29.0280   13.7937  -22.3526 H   0  0  0  0  0  0  0  0  0  0  0  0
 16 15  1  0
 17 14  2  0
 15 14  1  0
 14  2  1  0
  2 18  1  0
  2 13  2  0
 18 19  2  0
 11  1  2  0
 11 10  1  0
  1  7  1  0
 13 12  1  0
 13 20  1  0
 12  6  2  0
 19 20  1  0
 10  9  2  0
  7  6  1  0
  7  8  2  0
 20  4  1  0
  6  5  1  0
  9  8  1  0
  4  5  2  0
  4  3  1  0
  1 21  1  0
  3 22  1  0
  5 23  1  0
  8 24  1  0
  9 25  1  0
 10 26  1  0
 11 27  1  0
 15 28  1  0
 16 29  1  0
 16 30  1  0
 16 31  1  0
 18 32  1  0
 19 33  1  0
A    1
C10
A    2
C13
A    3
O01
A    4
C02
A    5
C03
A    6
C04
A    7
C05
A    8
C06
A    9
C07
A   10
C08
A   11
C09
A   12
N11
A   13
C12
A   14
C14
A   15
N15
A   16
C16
A   17
O17
A   18
C18
A   19
C19
A   20
N20
M  END
