5V8Q_97A_A_1004
     RDKit          3D

 34 35  0  0  0  0  0  0  0  0999 V2000
   29.4740   -0.5640    3.2510 C   0  0  0  0  0  0  0  0  0  0  0  0
   28.1420   -1.2740    3.5870 C   0  0  0  0  0  0  0  0  0  0  0  0
   28.0350    3.4410    3.8630 C   0  0  0  0  0  0  0  0  0  0  0  0
   26.0870    4.8260    4.2000 C   0  0  0  0  0  0  0  0  0  0  0  0
   23.8280    3.7340    4.7170 C   0  0  0  0  0  0  0  0  0  0  0  0
   29.2930    1.6830    6.3910 C   0  0  0  0  0  0  0  0  0  0  0  0
   29.7600    0.5220    5.5120 C   0  0  0  0  0  0  0  0  0  0  0  0
   29.3070    0.7430    4.0640 C   0  0  0  0  0  0  0  0  0  0  0  0
   30.5790   -1.3630    3.6780 O   0  0  0  0  0  0  0  0  0  0  0  0
   27.1870   -0.1070    3.6770 C   0  0  0  0  0  0  0  0  0  0  0  0
   25.9900   -0.2040    3.5190 O   0  0  0  0  0  0  0  0  0  0  0  0
   27.8630    1.0290    3.9690 N   0  0  0  0  0  0  0  0  0  0  0  0
   27.2670    2.2980    4.0740 C   0  0  0  0  0  0  0  0  0  0  0  0
   27.4570    4.6900    3.9330 C   0  0  0  0  0  0  0  0  0  0  0  0
   25.5370    6.1490    4.2570 C   0  0  0  0  0  0  0  0  0  0  0  0
   25.1140    7.2050    4.2990 N   0  0  0  0  0  0  0  0  0  0  0  0
   25.3060    3.6770    4.4060 C   0  0  0  0  0  0  0  0  0  0  0  0
   25.9060    2.4320    4.3390 C   0  0  0  0  0  0  0  0  0  0  0  0
   23.2000    2.6330    4.1510 F   0  0  0  0  0  0  0  0  0  0  0  0
   23.6400    3.6820    6.0970 F   0  0  0  0  0  0  0  0  0  0  0  0
   23.2180    4.8850    4.2290 F   0  0  0  0  0  0  0  0  0  0  0  0
   29.6747   -0.3856    2.1843 H   0  0  0  0  0  0  0  0  0  0  0  0
   27.8477   -1.9724    2.7897 H   0  0  0  0  0  0  0  0  0  0  0  0
   28.1816   -1.8898    4.4976 H   0  0  0  0  0  0  0  0  0  0  0  0
   29.1079    3.3461    3.6395 H   0  0  0  0  0  0  0  0  0  0  0  0
   29.4035    1.4083    7.4504 H   0  0  0  0  0  0  0  0  0  0  0  0
   29.9031    2.5731    6.1774 H   0  0  0  0  0  0  0  0  0  0  0  0
   28.2365    1.9027    6.1774 H   0  0  0  0  0  0  0  0  0  0  0  0
   29.3281   -0.4167    5.8892 H   0  0  0  0  0  0  0  0  0  0  0  0
   30.8582    0.4668    5.5415 H   0  0  0  0  0  0  0  0  0  0  0  0
   29.9139    1.5806    3.6898 H   0  0  0  0  0  0  0  0  0  0  0  0
   30.6082   -1.3841    4.6673 H   0  0  0  0  0  0  0  0  0  0  0  0
   28.0748    5.5869    3.7783 H   0  0  0  0  0  0  0  0  0  0  0  0
   25.2963    1.5304    4.4981 H   0  0  0  0  0  0  0  0  0  0  0  0
  1  2  1  0
  1  9  1  0
  1  8  1  0
 11 10  2  0
  2 10  1  0
 10 12  1  0
  3 14  2  0
  3 13  1  0
 14  4  1  0
 12  8  1  0
 12 13  1  0
  8  7  1  0
 13 18  2  0
 19  5  1  0
  4 15  1  0
  4 17  2  0
 21  5  1  0
 15 16  3  0
 18 17  1  0
 17  5  1  0
  5 20  1  0
  7  6  1  0
  1 22  1  0
  2 23  1  0
  2 24  1  0
  3 25  1  0
  6 26  1  0
  6 27  1  0
  6 28  1  0
  7 29  1  0
  7 30  1  0
  8 31  1  0
  9 32  1  0
 14 33  1  0
 18 34  1  0
A    1
C5
A    2
C8
A    3
C13
A    4
C15
A    5
C20
A    6
C1
A    7
C2
A    8
C3
A    9
O7
A   10
C9
A   11
O10
A   12
N11
A   13
C12
A   14
C14
A   15
C16
A   16
N17
A   17
C18
A   18
C19
A   19
F21
A   20
F22
A   21
F23
M  END
