5V8U_90M_A_502
     RDKit          3D

 30 31  0  0  0  0  0  0  0  0999 V2000
  -26.2470   -9.9060  -24.5210 N   0  0  0  0  0  0  0  0  0  0  0  0
  -25.7050   -8.1840  -26.1620 C   0  0  0  0  0  0  0  0  0  0  0  0
  -26.4740   -8.4550  -24.8900 C   0  0  0  0  0  0  0  0  0  0  0  0
  -24.2130   -9.6750  -27.6490 C   0  0  0  0  0  0  0  0  0  0  0  0
  -22.2560  -10.8140  -28.5460 C   0  0  0  0  0  0  0  0  0  0  0  0
  -25.0800   -9.3440  -26.5240 C   0  0  0  0  0  0  0  0  0  0  0  0
  -28.9530   -7.3330  -25.6640 O   0  0  0  0  0  0  0  0  0  0  0  0
  -23.6760   -9.4790  -30.0180 C   0  0  0  0  0  0  0  0  0  0  0  0
  -24.4850   -9.1790  -28.9330 C   0  0  0  0  0  0  0  0  0  0  0  0
  -21.7700  -10.6000  -30.8390 F   0  0  0  0  0  0  0  0  0  0  0  0
  -28.3910   -6.8660  -24.6810 C   0  0  0  0  0  0  0  0  0  0  0  0
  -28.8770   -5.6080  -23.9890 C   0  0  0  0  0  0  0  0  0  0  0  0
  -25.6820   -6.8810  -26.8340 C   0  0  0  0  0  0  0  0  0  0  0  0
  -27.3060   -7.5450  -24.0940 N   0  0  0  0  0  0  0  0  0  0  0  0
  -23.0920  -10.4890  -27.4820 C   0  0  0  0  0  0  0  0  0  0  0  0
  -22.5590  -10.3000  -29.8130 C   0  0  0  0  0  0  0  0  0  0  0  0
  -25.3750  -10.4030  -25.5700 N   0  0  0  0  0  0  0  0  0  0  0  0
  -27.4760   -4.5000  -23.6270 S   0  0  0  0  0  0  0  0  0  0  0  0
  -26.6240  -10.4212  -23.7127 H   0  0  0  0  0  0  0  0  0  0  0  0
  -21.3780  -11.4593  -28.3954 H   0  0  0  0  0  0  0  0  0  0  0  0
  -23.9057   -9.0815  -31.0176 H   0  0  0  0  0  0  0  0  0  0  0  0
  -25.3639   -8.5347  -29.0827 H   0  0  0  0  0  0  0  0  0  0  0  0
  -29.5912   -5.0871  -24.6437 H   0  0  0  0  0  0  0  0  0  0  0  0
  -29.3648   -5.8868  -23.0433 H   0  0  0  0  0  0  0  0  0  0  0  0
  -25.6679   -6.0799  -26.0803 H   0  0  0  0  0  0  0  0  0  0  0  0
  -24.7824   -6.8086  -27.4629 H   0  0  0  0  0  0  0  0  0  0  0  0
  -26.5784   -6.7769  -27.4629 H   0  0  0  0  0  0  0  0  0  0  0  0
  -27.0942   -7.4016  -23.0963 H   0  0  0  0  0  0  0  0  0  0  0  0
  -22.8628  -10.8848  -26.4816 H   0  0  0  0  0  0  0  0  0  0  0  0
  -27.3262   -4.3815  -22.2704 H   0  0  0  0  0  0  0  0  0  0  0  0
 10 16  1  0
  5 16  2  0
  5 15  1  0
 16  8  1  0
 15  4  2  0
  8  9  2  0
  4  9  1  0
  4  6  1  0
  7 11  2  0
 13  2  1  0
  6  2  1  0
  6 17  2  0
  2  3  2  0
 17  1  1  0
 11 14  1  0
 11 12  1  0
  3  1  1  0
  3 14  1  0
 12 18  1  0
  1 19  1  0
  5 20  1  0
  8 21  1  0
  9 22  1  0
 12 23  1  0
 12 24  1  0
 13 25  1  0
 13 26  1  0
 13 27  1  0
 14 28  1  0
 15 29  1  0
 18 30  1  0
A    1
N1
A    2
C2
A    3
C5
A    4
C6
A    5
C8
A    6
C3
A    7
O12
A    8
C10
A    9
C11
A   10
F9
A   11
C12
A   12
C13
A   13
C4B
A   14
N5
A   15
C7
A   16
C9
A   17
N2
A   18
S13
M  END
