5V8V_90D_A_502
     RDKit          3D

 80 82  0  0  0  0  0  0  0  0999 V2000
   27.2240   38.5760   24.4300 C   0  0  0  0  0  0  0  0  0  0  0  0
   27.6550   37.1600   24.1480 C   0  0  0  0  0  0  0  0  0  0  0  0
   27.7690   36.8150   22.6600 C   0  0  0  0  0  0  0  0  0  0  0  0
   28.9300   36.2550   22.1440 C   0  0  0  0  0  0  0  0  0  0  0  0
   29.0260   35.9390   20.8000 C   0  0  0  0  0  0  0  0  0  0  0  0
   27.9600   36.1740   19.9520 C   0  0  0  0  0  0  0  0  0  0  0  0
   26.7790   36.7340   20.4380 C   0  0  0  0  0  0  0  0  0  0  0  0
   26.7030   37.0390   21.7970 C   0  0  0  0  0  0  0  0  0  0  0  0
   25.6240   37.0060   19.5240 C   0  0  0  0  0  0  0  0  0  0  0  0
   24.8390   35.9370   19.1100 C   0  0  0  0  0  0  0  0  0  0  0  0
   25.1570   34.7070   19.5740 F   0  0  0  0  0  0  0  0  0  0  0  0
   23.7660   36.0590   18.2710 C   0  0  0  0  0  0  0  0  0  0  0  0
   23.4460   37.3180   17.7970 C   0  0  0  0  0  0  0  0  0  0  0  0
   24.1960   38.4240   18.1700 C   0  0  0  0  0  0  0  0  0  0  0  0
   25.2910   38.2960   19.0250 C   0  0  0  0  0  0  0  0  0  0  0  0
   26.1010   39.5570   19.4190 C   0  0  0  0  0  0  0  0  0  0  0  0
   25.5830   40.6740   18.6910 O   0  0  0  0  0  0  0  0  0  0  0  0
   27.6050   39.4450   19.1080 C   0  0  0  0  0  0  0  0  0  0  0  0
   28.0420   39.9940   17.7700 C   0  0  0  0  0  0  0  0  0  0  0  0
   28.4840   38.9290   16.7870 C   0  0  0  0  0  0  0  0  0  0  0  0
   29.9360   38.9510   16.5500 N   0  0  0  0  0  0  0  0  0  0  0  0
   30.4580   39.3790   15.3880 C   0  0  0  0  0  0  0  0  0  0  0  0
   30.5800   40.5440   15.0770 O   0  0  0  0  0  0  0  0  0  0  0  0
   30.8300   38.3470   14.6160 O   0  0  0  0  0  0  0  0  0  0  0  0
   31.4690   38.7010   13.3620 C   0  0  0  0  0  0  0  0  0  0  0  0
   25.6900   40.0300   20.8880 C   0  0  0  0  0  0  0  0  0  0  0  0
   24.1920   40.0850   21.2330 C   0  0  0  0  0  0  0  0  0  0  0  0
   23.9640   40.5400   22.6760 C   0  0  0  0  0  0  0  0  0  0  0  0
   24.7000   41.8360   22.9540 C   0  0  0  0  0  0  0  0  0  0  0  0
   26.1250   41.7230   22.5670 N   0  0  0  0  0  0  0  0  0  0  0  0
   26.3090   41.3400   21.1680 C   0  0  0  0  0  0  0  0  0  0  0  0
   27.1720   41.9290   23.3960 C   0  0  0  0  0  0  0  0  0  0  0  0
   28.3290   41.8150   23.0180 O   0  0  0  0  0  0  0  0  0  0  0  0
   26.8670   42.3140   24.8280 C   0  0  0  0  0  0  0  0  0  0  0  0
   28.1280   42.4830   25.6630 C   0  0  0  0  0  0  0  0  0  0  0  0
   27.9420   43.4300   26.8340 C   0  0  0  0  0  0  0  0  0  0  0  0
   28.1260   42.7620   28.1240 N   0  0  0  0  0  0  0  0  0  0  0  0
   28.1040   43.7330   29.2200 C   0  0  0  0  0  0  0  0  0  0  0  0
   27.1756   38.7349   25.5174 H   0  0  0  0  0  0  0  0  0  0  0  0
   27.9501   39.2750   23.9892 H   0  0  0  0  0  0  0  0  0  0  0  0
   26.2316   38.7519   23.9892 H   0  0  0  0  0  0  0  0  0  0  0  0
   28.6387   37.0011   24.6138 H   0  0  0  0  0  0  0  0  0  0  0  0
   26.8726   36.5067   24.5615 H   0  0  0  0  0  0  0  0  0  0  0  0
   29.7829   36.0603   22.8108 H   0  0  0  0  0  0  0  0  0  0  0  0
   29.9538   35.4993   20.4052 H   0  0  0  0  0  0  0  0  0  0  0  0
   28.0439   35.9173   18.8857 H   0  0  0  0  0  0  0  0  0  0  0  0
   25.7729   37.4690   22.1970 H   0  0  0  0  0  0  0  0  0  0  0  0
   23.1732   35.1790   17.9809 H   0  0  0  0  0  0  0  0  0  0  0  0
   22.5895   37.4437   17.1184 H   0  0  0  0  0  0  0  0  0  0  0  0
   23.9229   39.4178   17.7854 H   0  0  0  0  0  0  0  0  0  0  0  0
   25.2636   41.3627   19.3265 H   0  0  0  0  0  0  0  0  0  0  0  0
   28.1531   39.9889   19.8914 H   0  0  0  0  0  0  0  0  0  0  0  0
   27.8240   38.3675   19.0750 H   0  0  0  0  0  0  0  0  0  0  0  0
   27.1981   40.5446   17.3287 H   0  0  0  0  0  0  0  0  0  0  0  0
   28.9134   40.6387   17.9573 H   0  0  0  0  0  0  0  0  0  0  0  0
   28.2064   37.9425   17.1867 H   0  0  0  0  0  0  0  0  0  0  0  0
   27.9849   39.1307   15.8277 H   0  0  0  0  0  0  0  0  0  0  0  0
   30.5699   38.6294   17.2954 H   0  0  0  0  0  0  0  0  0  0  0  0
   32.4143   39.2247   13.5672 H   0  0  0  0  0  0  0  0  0  0  0  0
   31.6737   37.7877   12.7842 H   0  0  0  0  0  0  0  0  0  0  0  0
   30.8033   39.3590   12.7842 H   0  0  0  0  0  0  0  0  0  0  0  0
   26.0705   39.2265   21.5358 H   0  0  0  0  0  0  0  0  0  0  0  0
   23.7582   39.0827   21.1017 H   0  0  0  0  0  0  0  0  0  0  0  0
   23.7104   40.8118   20.5623 H   0  0  0  0  0  0  0  0  0  0  0  0
   24.3313   39.7623   23.3618 H   0  0  0  0  0  0  0  0  0  0  0  0
   22.8872   40.7063   22.8275 H   0  0  0  0  0  0  0  0  0  0  0  0
   24.6347   42.0650   24.0279 H   0  0  0  0  0  0  0  0  0  0  0  0
   24.2361   42.6395   22.3632 H   0  0  0  0  0  0  0  0  0  0  0  0
   25.8451   42.1012   20.5235 H   0  0  0  0  0  0  0  0  0  0  0  0
   27.3877   41.2661   20.9659 H   0  0  0  0  0  0  0  0  0  0  0  0
   26.2459   41.5272   25.2810 H   0  0  0  0  0  0  0  0  0  0  0  0
   26.3428   43.2809   24.8116 H   0  0  0  0  0  0  0  0  0  0  0  0
   28.9260   42.8774   25.0167 H   0  0  0  0  0  0  0  0  0  0  0  0
   28.3837   41.4960   26.0758 H   0  0  0  0  0  0  0  0  0  0  0  0
   26.9249   43.8470   26.7935 H   0  0  0  0  0  0  0  0  0  0  0  0
   28.7036   44.2195   26.7524 H   0  0  0  0  0  0  0  0  0  0  0  0
   29.0323   42.2725   28.1246 H   0  0  0  0  0  0  0  0  0  0  0  0
   28.1161   43.2001   30.1822 H   0  0  0  0  0  0  0  0  0  0  0  0
   28.9876   44.3845   29.1505 H   0  0  0  0  0  0  0  0  0  0  0  0
   27.1918   44.3438   29.1505 H   0  0  0  0  0  0  0  0  0  0  0  0
 38 37  1  0
 37 36  1  0
 36 35  1  0
 35 34  1  0
 34 32  1  0
  1  2  1  0
 32 33  2  0
 32 30  1  0
  2  3  1  0
 29 30  1  0
 29 28  1  0
 30 31  1  0
 28 27  1  0
  3  4  2  0
  3  8  1  0
 31 26  1  0
  4  5  1  0
  8  7  2  0
 27 26  1  0
 26 16  1  0
  5  6  2  0
  7  6  1  0
  7  9  1  0
 16 18  1  0
 16 17  1  0
 16 15  1  0
 18 19  1  0
  9 15  1  0
  9 10  2  0
 15 14  2  0
 11 10  1  0
 10 12  1  0
 20 19  1  0
 20 21  1  0
 14 13  1  0
 12 13  2  0
 21 22  1  0
 22 23  2  0
 22 24  1  0
 24 25  1  0
  1 39  1  0
  1 40  1  0
  1 41  1  0
  2 42  1  0
  2 43  1  0
  4 44  1  0
  5 45  1  0
  6 46  1  0
  8 47  1  0
 12 48  1  0
 13 49  1  0
 14 50  1  0
 17 51  1  0
 18 52  1  0
 18 53  1  0
 19 54  1  0
 19 55  1  0
 20 56  1  0
 20 57  1  0
 21 58  1  0
 25 59  1  0
 25 60  1  0
 25 61  1  0
 26 62  1  0
 27 63  1  0
 27 64  1  0
 28 65  1  0
 28 66  1  0
 29 67  1  0
 29 68  1  0
 31 69  1  0
 31 70  1  0
 34 71  1  0
 34 72  1  0
 35 73  1  0
 35 74  1  0
 36 75  1  0
 36 76  1  0
 37 77  1  0
 38 78  1  0
 38 79  1  0
 38 80  1  0
A    1
C01
A    2
C02
A    3
C03
A    4
C04
A    5
C05
A    6
C06
A    7
C07
A    8
C08
A    9
C09
A   10
C10
A   11
F11
A   12
C12
A   13
C13
A   14
C14
A   15
C15
A   16
C16
A   17
O17
A   18
C18
A   19
C19
A   20
C20
A   21
N21
A   22
C22
A   23
O23
A   24
O24
A   25
C25
A   26
C26
A   27
C28
A   28
C29
A   29
C30
A   30
N31
A   31
C32
A   32
C33
A   33
O34
A   34
C35
A   35
C36
A   36
C37
A   37
N38
A   38
C39
M  END
