5VAM_92J_A_801
     RDKit          3D

 68 72  0  0  0  0  0  0  0  0999 V2000
  -22.2990   42.9980   -1.7840 C   0  0  0  0  0  0  0  0  0  0  0  0
  -23.4300   42.9430   -0.9390 C   0  0  0  0  0  0  0  0  0  0  0  0
  -23.3430   43.3930    0.3870 C   0  0  0  0  0  0  0  0  0  0  0  0
  -27.2440   41.6650   -2.2190 C   0  0  0  0  0  0  0  0  0  0  0  0
  -25.7940   43.4040   -1.5230 C   0  0  0  0  0  0  0  0  0  0  0  0
  -25.5910   38.3170   -1.6160 C   0  0  0  0  0  0  0  0  0  0  0  0
  -26.2880   36.9370   -1.5200 C   0  0  0  0  0  0  0  0  0  0  0  0
  -27.6310   37.4350   -3.4740 C   0  0  0  0  0  0  0  0  0  0  0  0
  -26.9970   38.8390   -3.6100 C   0  0  0  0  0  0  0  0  0  0  0  0
  -22.3530   43.5180    3.3070 C   0  0  0  0  0  0  0  0  0  0  0  0
  -21.8210   43.9180    4.6660 C   0  0  0  0  0  0  0  0  0  0  0  0
  -21.0790   45.1120    4.8230 C   0  0  0  0  0  0  0  0  0  0  0  0
  -20.5200   45.4430    6.0670 C   0  0  0  0  0  0  0  0  0  0  0  0
  -20.7160   44.5950    7.1710 C   0  0  0  0  0  0  0  0  0  0  0  0
  -21.4860   43.4220    7.0350 C   0  0  0  0  0  0  0  0  0  0  0  0
  -22.0120   43.0710    5.7750 C   0  0  0  0  0  0  0  0  0  0  0  0
  -21.7810   42.5350    8.2390 C   0  0  0  0  0  0  0  0  0  0  0  0
  -22.9950   41.9480    8.1250 F   0  0  0  0  0  0  0  0  0  0  0  0
  -30.6010   40.6600   -0.6290 C   0  0  0  0  0  0  0  0  0  0  0  0
  -20.8350   41.5820    8.2550 F   0  0  0  0  0  0  0  0  0  0  0  0
  -24.7520   42.4790   -1.3970 C   0  0  0  0  0  0  0  0  0  0  0  0
  -30.1420   42.0820   -1.0470 C   0  0  0  0  0  0  0  0  0  0  0  0
  -26.4980   39.3000   -2.2870 N   0  0  0  0  0  0  0  0  0  0  0  0
  -21.7540   43.1890    9.4250 F   0  0  0  0  0  0  0  0  0  0  0  0
  -21.8640   44.1830    2.2240 N   0  0  0  0  0  0  0  0  0  0  0  0
  -21.1550   43.5310   -1.3030 N   0  0  0  0  0  0  0  0  0  0  0  0
  -29.6640   42.1010   -2.5310 C   0  0  0  0  0  0  0  0  0  0  0  0
  -30.8010   41.5610   -3.4500 C   0  0  0  0  0  0  0  0  0  0  0  0
  -31.2640   40.1630   -2.9370 C   0  0  0  0  0  0  0  0  0  0  0  0
  -28.5040   41.2500   -2.6310 O   0  0  0  0  0  0  0  0  0  0  0  0
  -31.6410   40.2310   -1.5420 O   0  0  0  0  0  0  0  0  0  0  0  0
  -21.0470   43.9670   -0.0240 C   0  0  0  0  0  0  0  0  0  0  0  0
  -22.1290   43.8900    0.8640 C   0  0  0  0  0  0  0  0  0  0  0  0
  -26.2320   40.6920   -2.0910 C   0  0  0  0  0  0  0  0  0  0  0  0
  -24.9570   41.1230   -1.6860 C   0  0  0  0  0  0  0  0  0  0  0  0
  -23.1720   42.6080    3.2490 O   0  0  0  0  0  0  0  0  0  0  0  0
  -26.9910   42.9680   -1.9400 N   0  0  0  0  0  0  0  0  0  0  0  0
  -22.2810   42.5090   -3.2250 C   0  0  0  0  0  0  0  0  0  0  0  0
  -26.6870   36.5390   -2.8440 O   0  0  0  0  0  0  0  0  0  0  0  0
  -24.2237   43.3545    1.0449 H   0  0  0  0  0  0  0  0  0  0  0  0
  -25.6345   44.4660   -1.2850 H   0  0  0  0  0  0  0  0  0  0  0  0
  -24.6644   38.2178   -2.2004 H   0  0  0  0  0  0  0  0  0  0  0  0
  -25.3551   38.6749   -0.6029 H   0  0  0  0  0  0  0  0  0  0  0  0
  -27.1733   37.0118   -0.8715 H   0  0  0  0  0  0  0  0  0  0  0  0
  -25.5992   36.1936   -1.0923 H   0  0  0  0  0  0  0  0  0  0  0  0
  -28.5404   37.5013   -2.8587 H   0  0  0  0  0  0  0  0  0  0  0  0
  -27.8907   37.0517   -4.4718 H   0  0  0  0  0  0  0  0  0  0  0  0
  -26.1583   38.7931   -4.3202 H   0  0  0  0  0  0  0  0  0  0  0  0
  -27.7567   39.5452   -3.9764 H   0  0  0  0  0  0  0  0  0  0  0  0
  -20.9392   45.7854    3.9645 H   0  0  0  0  0  0  0  0  0  0  0  0
  -19.9295   46.3644    6.1780 H   0  0  0  0  0  0  0  0  0  0  0  0
  -20.2675   44.8473    8.1432 H   0  0  0  0  0  0  0  0  0  0  0  0
  -22.5735   42.1324    5.6576 H   0  0  0  0  0  0  0  0  0  0  0  0
  -30.9940   40.6829    0.3982 H   0  0  0  0  0  0  0  0  0  0  0  0
  -29.7521   39.9615   -0.6663 H   0  0  0  0  0  0  0  0  0  0  0  0
  -29.3121   42.3975   -0.3977 H   0  0  0  0  0  0  0  0  0  0  0  0
  -30.9944   42.7697   -0.9445 H   0  0  0  0  0  0  0  0  0  0  0  0
  -21.2385   44.9792    2.4129 H   0  0  0  0  0  0  0  0  0  0  0  0
  -29.4140   43.1246   -2.8468 H   0  0  0  0  0  0  0  0  0  0  0  0
  -30.4268   41.4681   -4.4802 H   0  0  0  0  0  0  0  0  0  0  0  0
  -31.6511   42.2589   -3.4303 H   0  0  0  0  0  0  0  0  0  0  0  0
  -32.1287   39.8290   -3.5292 H   0  0  0  0  0  0  0  0  0  0  0  0
  -30.4312   39.4524   -3.0447 H   0  0  0  0  0  0  0  0  0  0  0  0
  -20.0925   44.3891    0.3236 H   0  0  0  0  0  0  0  0  0  0  0  0
  -24.1292   40.4041   -1.5968 H   0  0  0  0  0  0  0  0  0  0  0  0
  -22.2405   41.4098   -3.2387 H   0  0  0  0  0  0  0  0  0  0  0  0
  -23.1923   42.8488   -3.7389 H   0  0  0  0  0  0  0  0  0  0  0  0
  -21.3972   42.9149   -3.7389 H   0  0  0  0  0  0  0  0  0  0  0  0
  9  8  1  0
  9 23  1  0
  8 39  1  0
 28 29  1  0
 28 27  1  0
 38  1  1  0
 29 31  1  0
 39  7  1  0
 30 27  1  0
 30  4  1  0
 27 22  1  0
 23 34  1  0
 23  6  1  0
  4 34  2  0
  4 37  1  0
 34 35  1  0
 37  5  2  0
  1 26  2  0
  1  2  1  0
 35 21  2  0
  6  7  1  0
 31 19  1  0
  5 21  1  0
 21  2  1  0
 26 32  1  0
 22 19  1  0
  2  3  2  0
 32 33  2  0
  3 33  1  0
 33 25  1  0
 25 10  1  0
 36 10  2  0
 10 11  1  0
 11 12  2  0
 11 16  1  0
 12 13  1  0
 16 15  2  0
 13 14  2  0
 15 14  1  0
 15 17  1  0
 18 17  1  0
 17 20  1  0
 17 24  1  0
  3 40  1  0
  5 41  1  0
  6 42  1  0
  6 43  1  0
  7 44  1  0
  7 45  1  0
  8 46  1  0
  8 47  1  0
  9 48  1  0
  9 49  1  0
 12 50  1  0
 13 51  1  0
 14 52  1  0
 16 53  1  0
 19 54  1  0
 19 55  1  0
 22 56  1  0
 22 57  1  0
 25 58  1  0
 27 59  1  0
 28 60  1  0
 28 61  1  0
 29 62  1  0
 29 63  1  0
 32 64  1  0
 35 65  1  0
 38 66  1  0
 38 67  1  0
 38 68  1  0
A    1
C1
A    2
C2
A    3
C3
A    4
C11
A    5
C13
A    6
C15
A    7
C16
A    8
C18
A    9
C19
A   10
C22
A   11
C23
A   12
C24
A   13
C25
A   14
C26
A   15
C27
A   16
C28
A   17
C30
A   18
F33
A   19
C36
A   20
F32
A   21
C8
A   22
C35
A   23
N14
A   24
F31
A   25
N21
A   26
N6
A   27
C34
A   28
C39
A   29
C38
A   30
O20
A   31
O37
A   32
C5
A   33
C4
A   34
C10
A   35
C9
A   36
O29
A   37
N12
A   38
C7
A   39
O17
M  END
