5VB5_92A_A_602
     RDKit          3D

 77 79  0  0  0  0  0  0  0  0999 V2000
    0.5900   24.4860   15.6580 C   0  0  0  0  0  0  0  0  0  0  0  0
   -0.1800   24.4810   14.3380 C   0  0  0  0  0  0  0  0  0  0  0  0
   -1.6420   24.7190   14.5970 C   0  0  0  0  0  0  0  0  0  0  0  0
   -7.1120   22.8110   13.8140 C   0  0  0  0  0  0  0  0  0  0  0  0
   -8.8770   23.0220   15.4300 C   0  0  0  0  0  0  0  0  0  0  0  0
  -11.1250   23.8090   15.0030 C   0  0  0  0  0  0  0  0  0  0  0  0
  -13.4210   22.9870   14.4820 C   0  0  0  0  0  0  0  0  0  0  0  0
  -13.1580   21.5380   14.7870 C   0  0  0  0  0  0  0  0  0  0  0  0
  -13.9340   20.8770   15.7200 C   0  0  0  0  0  0  0  0  0  0  0  0
  -12.6660   18.8790   15.3680 C   0  0  0  0  0  0  0  0  0  0  0  0
  -11.8900   19.5420   14.4340 C   0  0  0  0  0  0  0  0  0  0  0  0
   -7.9320   22.9740   16.4440 C   0  0  0  0  0  0  0  0  0  0  0  0
   -4.2240   24.9270   12.6740 O   0  0  0  0  0  0  0  0  0  0  0  0
   -4.4470   24.9980   13.8630 C   0  0  0  0  0  0  0  0  0  0  0  0
   -5.1540   26.0330   14.3600 N   0  0  0  0  0  0  0  0  0  0  0  0
   -5.6530   27.0850   13.4640 C   0  0  0  0  0  0  0  0  0  0  0  0
   -7.1510   27.3370   13.6630 C   0  0  0  0  0  0  0  0  0  0  0  0
   -7.7200   26.7350   14.9530 C   0  0  0  0  0  0  0  0  0  0  0  0
   -9.0230   27.4480   15.3120 C   0  0  0  0  0  0  0  0  0  0  0  0
   -6.7240   26.8970   16.1020 C   0  0  0  0  0  0  0  0  0  0  0  0
   -5.4290   26.1300   15.8020 C   0  0  0  0  0  0  0  0  0  0  0  0
   -3.9380   23.9190   14.7820 C   0  0  0  0  0  0  0  0  0  0  0  0
   -2.5130   23.6950   14.5380 N   0  0  0  0  0  0  0  0  0  0  0  0
   -2.0300   25.8340   14.8510 O   0  0  0  0  0  0  0  0  0  0  0  0
    1.9540   23.8350   15.4420 C   0  0  0  0  0  0  0  0  0  0  0  0
    1.7540   22.3540   15.1260 C   0  0  0  0  0  0  0  0  0  0  0  0
    2.8050   23.9840   16.7040 C   0  0  0  0  0  0  0  0  0  0  0  0
   -4.7080   22.6300   14.5060 C   0  0  0  0  0  0  0  0  0  0  0  0
   -6.1740   22.7720   14.8310 C   0  0  0  0  0  0  0  0  0  0  0  0
   -6.5890   22.8520   16.1470 C   0  0  0  0  0  0  0  0  0  0  0  0
   -8.4570   22.9320   14.1080 C   0  0  0  0  0  0  0  0  0  0  0  0
  -10.2360   23.1300   15.7500 N   0  0  0  0  0  0  0  0  0  0  0  0
  -10.7680   24.3840   14.0030 O   0  0  0  0  0  0  0  0  0  0  0  0
  -12.5750   23.8620   15.4160 C   0  0  0  0  0  0  0  0  0  0  0  0
  -12.1360   20.8710   14.1440 C   0  0  0  0  0  0  0  0  0  0  0  0
  -12.3530   17.2140   15.7330 Cl  0  0  0  0  0  0  0  0  0  0  0  0
  -13.6910   19.5490   16.0090 C   0  0  0  0  0  0  0  0  0  0  0  0
    0.7264   25.5222   16.0012 H   0  0  0  0  0  0  0  0  0  0  0  0
    0.0270   23.9244   16.4180 H   0  0  0  0  0  0  0  0  0  0  0  0
   -0.0510   23.5065   13.8443 H   0  0  0  0  0  0  0  0  0  0  0  0
    0.2077   25.2807   13.6897 H   0  0  0  0  0  0  0  0  0  0  0  0
   -6.7851   22.7453   12.7657 H   0  0  0  0  0  0  0  0  0  0  0  0
  -13.1513   23.1975   13.4366 H   0  0  0  0  0  0  0  0  0  0  0  0
  -14.4876   23.2085   14.6344 H   0  0  0  0  0  0  0  0  0  0  0  0
  -14.7474   21.4103   16.2338 H   0  0  0  0  0  0  0  0  0  0  0  0
  -11.0752   19.0102   13.9209 H   0  0  0  0  0  0  0  0  0  0  0  0
   -8.2551   23.0336   17.4938 H   0  0  0  0  0  0  0  0  0  0  0  0
   -5.4787   26.7779   12.4222 H   0  0  0  0  0  0  0  0  0  0  0  0
   -5.1153   28.0161   13.6964 H   0  0  0  0  0  0  0  0  0  0  0  0
   -7.3186   28.4239   13.6855 H   0  0  0  0  0  0  0  0  0  0  0  0
   -7.6697   26.8449   12.8271 H   0  0  0  0  0  0  0  0  0  0  0  0
   -7.9085   25.6633   14.7922 H   0  0  0  0  0  0  0  0  0  0  0  0
   -9.1219   27.5021   16.4062 H   0  0  0  0  0  0  0  0  0  0  0  0
   -9.0114   28.4655   14.8941 H   0  0  0  0  0  0  0  0  0  0  0  0
   -9.8737   26.8897   14.8941 H   0  0  0  0  0  0  0  0  0  0  0  0
   -6.4910   27.9642   16.2315 H   0  0  0  0  0  0  0  0  0  0  0  0
   -7.1724   26.4927   17.0215 H   0  0  0  0  0  0  0  0  0  0  0  0
   -5.5173   25.1137   16.2136 H   0  0  0  0  0  0  0  0  0  0  0  0
   -4.5980   26.6825   16.2648 H   0  0  0  0  0  0  0  0  0  0  0  0
   -4.0818   24.2260   15.8285 H   0  0  0  0  0  0  0  0  0  0  0  0
   -2.1742   22.7472   14.3196 H   0  0  0  0  0  0  0  0  0  0  0  0
    2.4700   24.3266   14.6041 H   0  0  0  0  0  0  0  0  0  0  0  0
    1.6773   21.7859   16.0648 H   0  0  0  0  0  0  0  0  0  0  0  0
    0.8303   22.2250   14.5428 H   0  0  0  0  0  0  0  0  0  0  0  0
    2.6104   21.9846   14.5428 H   0  0  0  0  0  0  0  0  0  0  0  0
    2.1661   23.8721   17.5924 H   0  0  0  0  0  0  0  0  0  0  0  0
    3.5854   23.2088   16.7136 H   0  0  0  0  0  0  0  0  0  0  0  0
    3.2756   24.9782   16.7136 H   0  0  0  0  0  0  0  0  0  0  0  0
   -4.6026   22.3734   13.4415 H   0  0  0  0  0  0  0  0  0  0  0  0
   -4.2911   21.8391   15.1468 H   0  0  0  0  0  0  0  0  0  0  0  0
   -5.8480   22.8184   16.9593 H   0  0  0  0  0  0  0  0  0  0  0  0
   -9.1966   22.9571   13.2942 H   0  0  0  0  0  0  0  0  0  0  0  0
  -10.5734   22.6639   16.6043 H   0  0  0  0  0  0  0  0  0  0  0  0
  -12.9309   24.9014   15.3623 H   0  0  0  0  0  0  0  0  0  0  0  0
  -12.6703   23.4867   16.4456 H   0  0  0  0  0  0  0  0  0  0  0  0
  -11.5174   21.3961   13.4013 H   0  0  0  0  0  0  0  0  0  0  0  0
  -14.3130   19.0243   16.7492 H   0  0  0  0  0  0  0  0  0  0  0  0
 13 14  2  0
 16 17  1  0
 16 15  1  0
 17 18  1  0
  4 31  2  0
  4 29  1  0
 14 15  1  0
 14 22  1  0
 33  6  2  0
 31  5  1  0
 35 11  2  0
 35  8  1  0
  2  3  1  0
  2  1  1  0
 15 21  1  0
 11 10  1  0
  7  8  1  0
  7 34  1  0
 28 22  1  0
 28 29  1  0
 23  3  1  0
 23 22  1  0
  3 24  2  0
  8  9  2  0
 29 30  2  0
 18 19  1  0
 18 20  1  0
  6 34  1  0
  6 32  1  0
 26 25  1  0
 10 36  1  0
 10 37  2  0
  5 32  1  0
  5 12  2  0
 25  1  1  0
 25 27  1  0
  9 37  1  0
 21 20  1  0
 30 12  1  0
  1 38  1  0
  1 39  1  0
  2 40  1  0
  2 41  1  0
  4 42  1  0
  7 43  1  0
  7 44  1  0
  9 45  1  0
 11 46  1  0
 12 47  1  0
 16 48  1  0
 16 49  1  0
 17 50  1  0
 17 51  1  0
 18 52  1  0
 19 53  1  0
 19 54  1  0
 19 55  1  0
 20 56  1  0
 20 57  1  0
 21 58  1  0
 21 59  1  0
 22 60  1  0
 23 61  1  0
 25 62  1  0
 26 63  1  0
 26 64  1  0
 26 65  1  0
 27 66  1  0
 27 67  1  0
 27 68  1  0
 28 69  1  0
 28 70  1  0
 30 71  1  0
 31 72  1  0
 32 73  1  0
 34 74  1  0
 34 75  1  0
 35 76  1  0
 37 77  1  0
A    1
C4
A    2
C5
A    3
C6
A    4
C13
A    5
C15
A    6
C17
A    7
C20
A    8
C21
A    9
C22
A   10
C24
A   11
C26
A   12
C28
A   13
O31
A   14
C30
A   15
N32
A   16
C38
A   17
C37
A   18
C35
A   19
C36
A   20
C34
A   21
C33
A   22
C9
A   23
N8
A   24
O7
A   25
C2
A   26
C3
A   27
C1
A   28
C11
A   29
C12
A   30
C29
A   31
C14
A   32
N16
A   33
O18
A   34
C19
A   35
C27
A   36
CL1
A   37
C23
M  END
