5VBE_92V_A_202
     RDKit          3D

 40 41  0  0  0  0  0  0  0  0999 V2000
  -11.3840    0.7670  -20.8180 C   0  0  0  0  0  0  0  0  0  0  0  0
   -9.5680   -1.1710  -21.8340 C   0  0  0  0  0  0  0  0  0  0  0  0
  -19.4350    5.1140  -18.8890 C   0  0  0  0  0  0  0  0  0  0  0  0
  -20.2000    4.3630  -19.9290 C   0  0  0  0  0  0  0  0  0  0  0  0
  -16.1180    3.2070  -18.4590 C   0  0  0  0  0  0  0  0  0  0  0  0
  -15.5420    2.1690  -19.1650 C   0  0  0  0  0  0  0  0  0  0  0  0
  -15.1050    3.8450  -17.7510 C   0  0  0  0  0  0  0  0  0  0  0  0
  -13.2910    1.2580  -19.4420 C   0  0  0  0  0  0  0  0  0  0  0  0
  -13.4070   -0.0860  -19.1200 C   0  0  0  0  0  0  0  0  0  0  0  0
  -12.5100   -1.0060  -19.6440 C   0  0  0  0  0  0  0  0  0  0  0  0
  -11.4920   -0.5800  -20.4940 C   0  0  0  0  0  0  0  0  0  0  0  0
  -12.2850    1.6810  -20.2960 C   0  0  0  0  0  0  0  0  0  0  0  0
  -16.2650    1.2250  -20.0740 C   0  0  0  0  0  0  0  0  0  0  0  0
  -17.5730    3.5360  -18.4680 C   0  0  0  0  0  0  0  0  0  0  0  0
  -21.6770    4.5300  -19.9500 C   0  0  0  0  0  0  0  0  0  0  0  0
  -15.5000    0.9560  -21.1280 F   0  0  0  0  0  0  0  0  0  0  0  0
  -17.3750    1.7930  -20.5280 F   0  0  0  0  0  0  0  0  0  0  0  0
  -16.5900    0.1050  -19.4240 F   0  0  0  0  0  0  0  0  0  0  0  0
  -14.2400    2.1820  -18.9010 N   0  0  0  0  0  0  0  0  0  0  0  0
  -13.9450    3.1960  -18.0370 N   0  0  0  0  0  0  0  0  0  0  0  0
  -18.0310    4.8290  -18.8490 N   0  0  0  0  0  0  0  0  0  0  0  0
  -10.6130   -1.5130  -21.0010 O   0  0  0  0  0  0  0  0  0  0  0  0
  -18.3810    2.6620  -18.1690 O   0  0  0  0  0  0  0  0  0  0  0  0
  -22.2380    6.1460  -20.3630 S   0  0  0  0  0  0  0  0  0  0  0  0
  -10.5823    1.1080  -21.4896 H   0  0  0  0  0  0  0  0  0  0  0  0
   -8.6950   -0.8853  -21.2288 H   0  0  0  0  0  0  0  0  0  0  0  0
   -9.3085   -2.0311  -22.4687 H   0  0  0  0  0  0  0  0  0  0  0  0
   -9.8672   -0.3239  -22.4687 H   0  0  0  0  0  0  0  0  0  0  0  0
  -19.5599    6.1895  -19.0831 H   0  0  0  0  0  0  0  0  0  0  0  0
  -19.8419    4.7966  -17.9176 H   0  0  0  0  0  0  0  0  0  0  0  0
  -19.8188    4.6797  -20.9110 H   0  0  0  0  0  0  0  0  0  0  0  0
  -20.0417    3.3029  -19.6818 H   0  0  0  0  0  0  0  0  0  0  0  0
  -15.2207    4.7123  -17.0844 H   0  0  0  0  0  0  0  0  0  0  0  0
  -14.2107   -0.4229  -18.4487 H   0  0  0  0  0  0  0  0  0  0  0  0
  -12.6029   -2.0718  -19.3881 H   0  0  0  0  0  0  0  0  0  0  0  0
  -12.2015    2.7455  -20.5602 H   0  0  0  0  0  0  0  0  0  0  0  0
  -22.0893    3.8267  -20.6885 H   0  0  0  0  0  0  0  0  0  0  0  0
  -22.0223    4.3382  -18.9234 H   0  0  0  0  0  0  0  0  0  0  0  0
  -17.3511    5.5620  -19.0967 H   0  0  0  0  0  0  0  0  0  0  0  0
  -22.4830    6.8517  -19.2146 H   0  0  0  0  0  0  0  0  0  0  0  0
  1 11  2  0
  1 12  1  0
  2 22  1  0
  3  4  1  0
  3 21  1  0
  4 15  1  0
  5  6  2  0
  5  7  1  0
  5 14  1  0
  6 13  1  0
  6 19  1  0
  7 20  2  0
  8  9  1  0
  8 12  2  0
  8 19  1  0
  9 10  2  0
 10 11  1  0
 11 22  1  0
 13 16  1  0
 13 17  1  0
 13 18  1  0
 14 21  1  0
 14 23  2  0
 15 24  1  0
 19 20  1  0
  1 25  1  0
  2 26  1  0
  2 27  1  0
  2 28  1  0
  3 29  1  0
  3 30  1  0
  4 31  1  0
  4 32  1  0
  7 33  1  0
  9 34  1  0
 10 35  1  0
 12 36  1  0
 15 37  1  0
 15 38  1  0
 21 39  1  0
 24 40  1  0
A    1
C10
A    2
C13
A    3
C21
A    4
C22
A    5
C01
A    6
C02
A    7
C05
A    8
C06
A    9
C07
A   10
C08
A   11
C09
A   12
C11
A   13
C14
A   14
C18
A   15
C23
A   16
F15
A   17
F16
A   18
F17
A   19
N03
A   20
N04
A   21
N20
A   22
O12
A   23
O19
A   24
S24
M  END
