5VC5_96M_A_601
     RDKit          3D

 62 65  0  0  0  0  0  0  0  0999 V2000
  -10.2680   11.3400    9.5910 C   0  0  0  0  0  0  0  0  0  0  0  0
  -10.0920   11.7360    8.0880 C   0  0  0  0  0  0  0  0  0  0  0  0
   -8.7230   11.5650    7.4360 N   0  0  0  0  0  0  0  0  0  0  0  0
   -7.7640   12.7190    7.3120 C   0  0  0  0  0  0  0  0  0  0  0  0
   -6.4660   12.6990    8.1660 C   0  0  0  0  0  0  0  0  0  0  0  0
   -8.2080   10.2110    7.0020 C   0  0  0  0  0  0  0  0  0  0  0  0
   -7.1430    9.6000    7.9660 C   0  0  0  0  0  0  0  0  0  0  0  0
   -7.4140   10.0560    9.3200 O   0  0  0  0  0  0  0  0  0  0  0  0
   -7.1440    9.1590   10.2940 C   0  0  0  0  0  0  0  0  0  0  0  0
   -7.9460    9.0770   11.4530 C   0  0  0  0  0  0  0  0  0  0  0  0
   -7.6110    8.1620   12.4750 C   0  0  0  0  0  0  0  0  0  0  0  0
   -6.4840    7.3100   12.3390 C   0  0  0  0  0  0  0  0  0  0  0  0
   -6.2190    6.4620   13.3920 N   0  0  0  0  0  0  0  0  0  0  0  0
   -5.5730    5.2860   13.4260 C   0  0  0  0  0  0  0  0  0  0  0  0
   -4.8390    4.8890   12.3670 N   0  0  0  0  0  0  0  0  0  0  0  0
   -4.1740    3.7280   12.3000 C   0  0  0  0  0  0  0  0  0  0  0  0
   -4.2220    2.8840   13.4120 C   0  0  0  0  0  0  0  0  0  0  0  0
   -4.9450    3.3080   14.5290 C   0  0  0  0  0  0  0  0  0  0  0  0
   -5.5970    4.4890   14.5080 N   0  0  0  0  0  0  0  0  0  0  0  0
   -3.5210    1.6620   13.3910 C   0  0  0  0  0  0  0  0  0  0  0  0
   -2.7960    1.2860   12.2490 C   0  0  0  0  0  0  0  0  0  0  0  0
   -2.7790    2.1830   11.1530 C   0  0  0  0  0  0  0  0  0  0  0  0
   -2.0890    1.8100   10.1810 O   0  0  0  0  0  0  0  0  0  0  0  0
   -3.4680    3.3810   11.1750 N   0  0  0  0  0  0  0  0  0  0  0  0
   -3.4890    4.3050   10.0520 C   0  0  0  0  0  0  0  0  0  0  0  0
   -2.0920    0.0400   12.1970 C   0  0  0  0  0  0  0  0  0  0  0  0
   -2.7980   -1.1740   11.9700 C   0  0  0  0  0  0  0  0  0  0  0  0
   -4.4790   -1.1650   11.8120 Cl  0  0  0  0  0  0  0  0  0  0  0  0
   -2.1320   -2.4260   11.9090 C   0  0  0  0  0  0  0  0  0  0  0  0
   -0.7250   -2.4740   12.0290 C   0  0  0  0  0  0  0  0  0  0  0  0
   -0.0100   -1.2850   12.2290 C   0  0  0  0  0  0  0  0  0  0  0  0
   -0.6850   -0.0410   12.3130 C   0  0  0  0  0  0  0  0  0  0  0  0
    0.2350    1.3570   12.5630 Cl  0  0  0  0  0  0  0  0  0  0  0  0
   -5.6980    7.4190   11.1810 C   0  0  0  0  0  0  0  0  0  0  0  0
   -6.0110    8.3350   10.1710 C   0  0  0  0  0  0  0  0  0  0  0  0
   -9.9045   12.1578   10.2306 H   0  0  0  0  0  0  0  0  0  0  0  0
  -11.3323   11.1566    9.7997 H   0  0  0  0  0  0  0  0  0  0  0  0
   -9.6909   10.4271    9.7997 H   0  0  0  0  0  0  0  0  0  0  0  0
  -10.3607   12.7991    8.0006 H   0  0  0  0  0  0  0  0  0  0  0  0
  -10.7331   11.0227    7.5492 H   0  0  0  0  0  0  0  0  0  0  0  0
   -7.4578   12.7749    6.2570 H   0  0  0  0  0  0  0  0  0  0  0  0
   -8.3278   13.5806    7.6989 H   0  0  0  0  0  0  0  0  0  0  0  0
   -6.7296   12.7031    9.2339 H   0  0  0  0  0  0  0  0  0  0  0  0
   -5.8886   11.7919    7.9343 H   0  0  0  0  0  0  0  0  0  0  0  0
   -5.8609   13.5879    7.9343 H   0  0  0  0  0  0  0  0  0  0  0  0
   -9.0607    9.5184    6.9444 H   0  0  0  0  0  0  0  0  0  0  0  0
   -7.7135   10.3543    6.0299 H   0  0  0  0  0  0  0  0  0  0  0  0
   -7.1982    8.5020    7.9285 H   0  0  0  0  0  0  0  0  0  0  0  0
   -6.1365    9.9212    7.6598 H   0  0  0  0  0  0  0  0  0  0  0  0
   -8.8292    9.7240   11.5596 H   0  0  0  0  0  0  0  0  0  0  0  0
   -8.2284    8.1091   13.3838 H   0  0  0  0  0  0  0  0  0  0  0  0
   -6.5754    6.7835   14.3033 H   0  0  0  0  0  0  0  0  0  0  0  0
   -4.9831    2.6769   15.4291 H   0  0  0  0  0  0  0  0  0  0  0  0
   -3.5418    1.0017   14.2705 H   0  0  0  0  0  0  0  0  0  0  0  0
   -3.5125    5.3385   10.4279 H   0  0  0  0  0  0  0  0  0  0  0  0
   -2.5873    4.1581    9.4394 H   0  0  0  0  0  0  0  0  0  0  0  0
   -4.3831    4.1173    9.4394 H   0  0  0  0  0  0  0  0  0  0  0  0
   -2.7076   -3.3529   11.7692 H   0  0  0  0  0  0  0  0  0  0  0  0
   -0.1953   -3.4360   11.9660 H   0  0  0  0  0  0  0  0  0  0  0  0
    1.0856   -1.3174   12.3217 H   0  0  0  0  0  0  0  0  0  0  0  0
   -4.8172    6.7703   11.0653 H   0  0  0  0  0  0  0  0  0  0  0  0
   -5.3704    8.4108    9.2800 H   0  0  0  0  0  0  0  0  0  0  0  0
  6  3  1  0
  6  7  1  0
  4  3  1  0
  4  5  1  0
  3  2  1  0
  7  8  1  0
  2  1  1  0
  8  9  1  0
 25 24  1  0
 35  9  2  0
 35 34  1  0
 23 22  2  0
  9 10  1  0
 22 24  1  0
 22 21  1  0
 24 16  1  0
 34 12  2  0
 10 11  2  0
 28 27  1  0
 29 27  2  0
 29 30  1  0
 27 26  1  0
 30 31  2  0
 26 21  1  0
 26 32  2  0
 31 32  1  0
 21 20  2  0
 16 15  2  0
 16 17  1  0
 32 33  1  0
 12 11  1  0
 12 13  1  0
 15 14  1  0
 20 17  1  0
 13 14  1  0
 17 18  2  0
 14 19  2  0
 19 18  1  0
  1 36  1  0
  1 37  1  0
  1 38  1  0
  2 39  1  0
  2 40  1  0
  4 41  1  0
  4 42  1  0
  5 43  1  0
  5 44  1  0
  5 45  1  0
  6 46  1  0
  6 47  1  0
  7 48  1  0
  7 49  1  0
 10 50  1  0
 11 51  1  0
 13 52  1  0
 18 53  1  0
 20 54  1  0
 25 55  1  0
 25 56  1  0
 25 57  1  0
 29 58  1  0
 30 59  1  0
 31 60  1  0
 34 61  1  0
 35 62  1  0
A    1
C01
A    2
C02
A    3
N03
A    4
C04
A    5
C05
A    6
C06
A    7
C07
A    8
O08
A    9
C09
A   10
C10
A   11
C11
A   12
C12
A   13
N13
A   14
C14
A   15
N15
A   16
C16
A   17
C17
A   18
C18
A   19
N19
A   20
C20
A   21
C21
A   22
C22
A   23
O23
A   24
N24
A   25
C25
A   26
C26
A   27
C27
A   28
CL28
A   29
C29
A   30
C30
A   31
C31
A   32
C32
A   33
CL33
A   34
C34
A   35
C35
M  END
