5VDQ_9BG_A_602
     RDKit          3D

 72 77  0  0  0  0  0  0  0  0999 V2000
  -25.5270   -7.2980  -27.1750 C   0  0  0  0  0  0  0  0  0  0  0  0
  -27.2870   -8.4340  -30.6570 C   0  0  0  0  0  0  0  0  0  0  0  0
  -28.4660  -12.2090  -24.7870 C   0  0  0  0  0  0  0  0  0  0  0  0
  -24.6800   -9.6550  -24.4230 C   0  0  0  0  0  0  0  0  0  0  0  0
  -24.6210  -11.7150  -25.8380 C   0  0  0  0  0  0  0  0  0  0  0  0
  -25.1550   -9.4480  -26.9110 C   0  0  0  0  0  0  0  0  0  0  0  0
  -25.0270   -8.8310  -25.6700 C   0  0  0  0  0  0  0  0  0  0  0  0
  -25.6570   -8.6880  -29.1130 C   0  0  0  0  0  0  0  0  0  0  0  0
  -26.0600   -7.3130  -30.9140 C   0  0  0  0  0  0  0  0  0  0  0  0
  -27.1570   -8.8710  -29.4410 C   0  0  0  0  0  0  0  0  0  0  0  0
  -28.9760  -12.3970  -26.2040 C   0  0  0  0  0  0  0  0  0  0  0  0
  -29.7510  -12.0260  -23.7310 C   0  0  0  0  0  0  0  0  0  0  0  0
  -28.4010   -9.1620  -23.5880 N   0  0  0  0  0  0  0  0  0  0  0  0
  -24.5710   -9.1220  -23.3630 O   0  0  0  0  0  0  0  0  0  0  0  0
  -24.4870  -11.0720  -24.5380 N   0  0  0  0  0  0  0  0  0  0  0  0
  -24.4320  -13.1160  -25.9640 N   0  0  0  0  0  0  0  0  0  0  0  0
  -24.9550  -10.9110  -27.0300 N   0  0  0  0  0  0  0  0  0  0  0  0
  -25.2570   -7.5170  -25.8430 N   0  0  0  0  0  0  0  0  0  0  0  0
  -25.4630   -8.4970  -27.8170 N   0  0  0  0  0  0  0  0  0  0  0  0
  -25.2390   -7.3960  -29.9420 O   0  0  0  0  0  0  0  0  0  0  0  0
  -26.6280   -5.9150  -30.9820 C   0  0  0  0  0  0  0  0  0  0  0  0
  -26.4310   -5.2820  -29.6910 O   0  0  0  0  0  0  0  0  0  0  0  0
  -27.1620   -9.5160  -31.5800 O   0  0  0  0  0  0  0  0  0  0  0  0
  -27.5160  -10.3530  -29.3680 O   0  0  0  0  0  0  0  0  0  0  0  0
  -28.7150  -10.7940  -28.3000 P   0  0  0  0  0  0  0  0  0  0  0  0
  -28.0810  -11.7980  -27.1190 O   0  0  0  0  0  0  0  0  0  0  0  0
  -30.1350  -13.3280  -23.1270 O   0  0  0  0  0  0  0  0  0  0  0  0
  -30.5830  -14.6660  -24.1290 P   0  0  0  0  0  0  0  0  0  0  0  0
  -31.2790  -14.1770  -25.3710 O   0  0  0  0  0  0  0  0  0  0  0  0
  -31.5040  -15.5540  -23.3700 O   0  0  0  0  0  0  0  0  0  0  0  0
  -29.3320  -15.4550  -24.5280 O   0  0  0  0  0  0  0  0  0  0  0  0
  -29.3810  -11.2170  -22.8150 C   0  0  0  0  0  0  0  0  0  0  0  0
  -28.9990  -11.9690  -21.5560 O   0  0  0  0  0  0  0  0  0  0  0  0
  -28.1230  -10.4480  -23.3760 C   0  0  0  0  0  0  0  0  0  0  0  0
  -28.2530   -8.1290  -22.6640 C   0  0  0  0  0  0  0  0  0  0  0  0
  -27.8260   -8.0910  -21.3510 N   0  0  0  0  0  0  0  0  0  0  0  0
  -27.7920   -6.9590  -20.7190 C   0  0  0  0  0  0  0  0  0  0  0  0
  -28.1550   -5.8320  -21.2900 N   0  0  0  0  0  0  0  0  0  0  0  0
  -28.5790   -5.7970  -22.5580 C   0  0  0  0  0  0  0  0  0  0  0  0
  -28.9800   -4.5320  -23.1790 N   0  0  0  0  0  0  0  0  0  0  0  0
  -28.6320   -6.9940  -23.2800 C   0  0  0  0  0  0  0  0  0  0  0  0
  -28.9950   -7.3120  -24.5290 N   0  0  0  0  0  0  0  0  0  0  0  0
  -28.8400   -8.6610  -24.6910 C   0  0  0  0  0  0  0  0  0  0  0  0
  -27.7600  -11.1340  -24.7180 O   0  0  0  0  0  0  0  0  0  0  0  0
  -29.7790  -11.4860  -29.0300 O   0  0  0  0  0  0  0  0  0  0  0  0
  -29.2920   -9.5060  -27.6250 O   0  0  0  0  0  0  0  0  0  0  0  0
  -25.7542   -6.3266  -27.6385 H   0  0  0  0  0  0  0  0  0  0  0  0
  -28.2749   -7.9733  -30.8046 H   0  0  0  0  0  0  0  0  0  0  0  0
  -27.8675  -13.0921  -24.5189 H   0  0  0  0  0  0  0  0  0  0  0  0
  -25.0625   -9.5762  -29.3732 H   0  0  0  0  0  0  0  0  0  0  0  0
  -25.5541   -7.5254  -31.8674 H   0  0  0  0  0  0  0  0  0  0  0  0
  -27.8148   -8.3363  -28.7400 H   0  0  0  0  0  0  0  0  0  0  0  0
  -29.9659  -11.9273  -26.3010 H   0  0  0  0  0  0  0  0  0  0  0  0
  -29.0526  -13.4724  -26.4224 H   0  0  0  0  0  0  0  0  0  0  0  0
  -30.6277  -11.6398  -24.2716 H   0  0  0  0  0  0  0  0  0  0  0  0
  -24.3528  -13.7028  -25.1212 H   0  0  0  0  0  0  0  0  0  0  0  0
  -24.3740  -13.5459  -26.8982 H   0  0  0  0  0  0  0  0  0  0  0  0
  -25.0493  -11.3688  -27.9478 H   0  0  0  0  0  0  0  0  0  0  0  0
  -26.1082   -5.3394  -31.7621 H   0  0  0  0  0  0  0  0  0  0  0  0
  -27.6996   -5.9519  -31.2274 H   0  0  0  0  0  0  0  0  0  0  0  0
  -26.6329   -5.9309  -28.9711 H   0  0  0  0  0  0  0  0  0  0  0  0
  -27.0639  -10.3655  -31.0813 H   0  0  0  0  0  0  0  0  0  0  0  0
  -31.3655  -15.4204  -22.3989 H   0  0  0  0  0  0  0  0  0  0  0  0
  -28.8569  -15.7547  -23.7128 H   0  0  0  0  0  0  0  0  0  0  0  0
  -30.1972  -10.5270  -22.5548 H   0  0  0  0  0  0  0  0  0  0  0  0
  -29.2670  -11.4414  -20.7623 H   0  0  0  0  0  0  0  0  0  0  0  0
  -27.2923  -10.4857  -22.6559 H   0  0  0  0  0  0  0  0  0  0  0  0
  -27.4492   -6.9414  -19.6739 H   0  0  0  0  0  0  0  0  0  0  0  0
  -29.2352   -3.7270  -22.5894 H   0  0  0  0  0  0  0  0  0  0  0  0
  -29.0067   -4.4478  -24.2052 H   0  0  0  0  0  0  0  0  0  0  0  0
  -29.0546   -9.2250  -25.6107 H   0  0  0  0  0  0  0  0  0  0  0  0
  -29.2491   -9.6018  -26.6406 H   0  0  0  0  0  0  0  0  0  0  0  0
 23  2  1  0
 21  9  1  0
 21 22  1  0
  9  2  1  0
  9 20  1  0
  2 10  1  0
 20  8  1  0
 10 24  1  0
 10  8  1  0
 24 25  1  0
  8 19  1  0
 45 25  2  0
 25 46  1  0
 25 26  1  0
 19  1  1  0
 19  6  1  0
  1 18  2  0
 26 11  1  0
 17  6  1  0
 17  5  1  0
  6  7  2  0
 11  3  1  0
 16  5  1  0
 18  7  1  0
  5 15  2  0
  7  4  1  0
 29 28  2  0
  3 44  1  0
  3 12  1  0
 44 34  1  0
 43 42  2  0
 43 13  1  0
 15  4  1  0
 42 41  1  0
 31 28  1  0
  4 14  2  0
 28 30  1  0
 28 27  1  0
 12 27  1  0
 12 32  1  0
 13 34  1  0
 13 35  1  0
 34 32  1  0
 41 35  1  0
 41 39  2  0
 40 39  1  0
 32 33  1  0
 35 36  2  0
 39 38  1  0
 36 37  1  0
 38 37  2  0
  1 47  1  0
  2 48  1  0
  3 49  1  0
  8 50  1  0
  9 51  1  0
 10 52  1  0
 11 53  1  0
 11 54  1  0
 12 55  1  0
 16 56  1  0
 16 57  1  0
 17 58  1  0
 21 59  1  0
 21 60  1  0
 22 61  1  0
 23 62  1  0
 30 63  1  0
 31 64  1  0
 32 65  1  0
 33 66  1  0
 34 67  1  0
 37 68  1  0
 40 69  1  0
 40 70  1  0
 43 71  1  0
 46 72  1  0
A    1
C10
A    2
C17
A    3
C24
A    4
C02
A    5
C04
A    6
C07
A    7
C08
A    8
C12
A    9
C14
A   10
C19
A   11
C23
A   12
C25
A   13
N34
A   14
O01
A   15
N03
A   16
N05
A   17
N06
A   18
N09
A   19
N11
A   20
O13
A   21
C15
A   22
O16
A   23
O18
A   24
O20
A   25
P21
A   26
O22
A   27
O26
A   28
P27
A   29
O28
A   30
O29
A   31
O30
A   32
C31
A   33
O32
A   34
C33
A   35
C35
A   36
N36
A   37
C37
A   38
N38
A   39
C39
A   40
N40
A   41
C41
A   42
N42
A   43
C43
A   44
O44
A   45
O45
A   46
O46
M  END
