5VDV_9BV_A_602
     RDKit          3D

 19 21  0  0  0  0  0  0  0  0999 V2000
  -30.1140   18.6760  -24.0880 C   0  0  0  0  0  0  0  0  0  0  0  0
  -29.0420   16.7220  -23.0470 C   0  0  0  0  0  0  0  0  0  0  0  0
  -29.8800   16.6220  -25.3730 C   0  0  0  0  0  0  0  0  0  0  0  0
  -29.3770   18.8790  -21.9300 C   0  0  0  0  0  0  0  0  0  0  0  0
  -30.4880   17.2170  -26.4390 C   0  0  0  0  0  0  0  0  0  0  0  0
  -30.9170   18.5290  -26.3620 C   0  0  0  0  0  0  0  0  0  0  0  0
  -30.7400   19.2560  -25.2190 C   0  0  0  0  0  0  0  0  0  0  0  0
  -29.6720   17.3290  -24.1640 C   0  0  0  0  0  0  0  0  0  0  0  0
  -28.8990   17.5040  -21.9350 N   0  0  0  0  0  0  0  0  0  0  0  0
  -29.9610   19.4440  -22.9650 N   0  0  0  0  0  0  0  0  0  0  0  0
  -29.0490   19.3100  -20.6500 N   0  0  0  0  0  0  0  0  0  0  0  0
  -28.4460   18.3320  -19.9480 N   0  0  0  0  0  0  0  0  0  0  0  0
  -28.3460   17.2480  -20.6920 N   0  0  0  0  0  0  0  0  0  0  0  0
  -28.6380   15.4880  -23.1160 O   0  0  0  0  0  0  0  0  0  0  0  0
  -29.5461   15.5770  -25.4537 H   0  0  0  0  0  0  0  0  0  0  0  0
  -30.6384   16.6479  -27.3683 H   0  0  0  0  0  0  0  0  0  0  0  0
  -31.4065   18.9929  -27.2311 H   0  0  0  0  0  0  0  0  0  0  0  0
  -31.0860   20.2993  -25.1764 H   0  0  0  0  0  0  0  0  0  0  0  0
  -28.4700   14.9750  -22.2861 H   0  0  0  0  0  0  0  0  0  0  0  0
  5  6  1  0
  5  3  2  0
  6  7  2  0
  3  8  1  0
  7  1  1  0
  8  1  1  0
  8  2  2  0
  1 10  2  0
 14  2  1  0
  2  9  1  0
 10  4  1  0
  9  4  1  0
  9 13  1  0
  4 11  2  0
 13 12  2  0
 11 12  1  0
  3 15  1  0
  5 16  1  0
  6 17  1  0
  7 18  1  0
 14 19  1  0
A    1
C4
A    2
C7
A    3
C6
A    4
C9
A    5
C1
A    6
C2
A    7
C3
A    8
C5
A    9
N8
A   10
N10
A   11
N11
A   12
N12
A   13
N13
A   14
O14
M  END
