5VEE_981_A_601
     RDKit          3D

 58 62  0  0  0  0  0  0  0  0999 V2000
  -25.6430   13.9270  -17.2170 C   0  0  0  0  0  0  0  0  0  0  0  0
  -26.6720   13.8190  -18.1090 C   0  0  0  0  0  0  0  0  0  0  0  0
  -27.9270   13.4860  -17.6890 C   0  0  0  0  0  0  0  0  0  0  0  0
  -39.9840   12.8330  -10.6020 C   0  0  0  0  0  0  0  0  0  0  0  0
  -40.6620   13.6170   -9.4630 C   0  0  0  0  0  0  0  0  0  0  0  0
  -25.8470   13.6900  -15.8680 C   0  0  0  0  0  0  0  0  0  0  0  0
  -27.1030   13.3440  -15.4110 C   0  0  0  0  0  0  0  0  0  0  0  0
  -28.1120   13.2320  -16.3280 C   0  0  0  0  0  0  0  0  0  0  0  0
  -29.4810   12.8570  -15.8390 C   0  0  0  0  0  0  0  0  0  0  0  0
  -30.0660   11.6460  -16.2890 C   0  0  0  0  0  0  0  0  0  0  0  0
  -31.4130   11.3990  -15.7910 C   0  0  0  0  0  0  0  0  0  0  0  0
  -32.0150   10.2460  -16.2170 C   0  0  0  0  0  0  0  0  0  0  0  0
  -35.6190   12.2070  -12.7710 C   0  0  0  0  0  0  0  0  0  0  0  0
  -36.5130   12.9230  -11.9880 C   0  0  0  0  0  0  0  0  0  0  0  0
  -37.8900   12.6990  -12.0320 C   0  0  0  0  0  0  0  0  0  0  0  0
  -38.8690   14.9320  -11.3360 C   0  0  0  0  0  0  0  0  0  0  0  0
  -38.9730   15.4450   -9.9030 C   0  0  0  0  0  0  0  0  0  0  0  0
  -30.2070   13.8070  -14.8890 C   0  0  0  0  0  0  0  0  0  0  0  0
  -32.0760   12.2600  -14.9270 C   0  0  0  0  0  0  0  0  0  0  0  0
  -33.9050   10.7700  -14.9330 C   0  0  0  0  0  0  0  0  0  0  0  0
  -36.0990   11.2520  -13.6400 C   0  0  0  0  0  0  0  0  0  0  0  0
  -37.4760   11.0090  -13.6740 C   0  0  0  0  0  0  0  0  0  0  0  0
  -38.3800   11.7320  -12.8730 C   0  0  0  0  0  0  0  0  0  0  0  0
  -32.3230   14.3000  -13.4640 C   0  0  0  0  0  0  0  0  0  0  0  0
  -32.1280   15.8250  -13.5120 C   0  0  0  0  0  0  0  0  0  0  0  0
  -35.9480   13.8360  -11.1750 F   0  0  0  0  0  0  0  0  0  0  0  0
  -40.2210   14.9970   -9.2890 N   0  0  0  0  0  0  0  0  0  0  0  0
  -33.2650    9.9340  -15.7940 N   0  0  0  0  0  0  0  0  0  0  0  0
  -38.8180   13.4720  -11.2000 N   0  0  0  0  0  0  0  0  0  0  0  0
  -31.5160   13.4860  -14.4420 N   0  0  0  0  0  0  0  0  0  0  0  0
  -33.2810   11.8980  -14.5280 N   0  0  0  0  0  0  0  0  0  0  0  0
  -35.2360   10.4250  -14.4820 N   0  0  0  0  0  0  0  0  0  0  0  0
  -29.5450   14.9590  -14.4870 O   0  0  0  0  0  0  0  0  0  0  0  0
  -24.0880   14.3810  -17.9640 Cl  0  0  0  0  0  0  0  0  0  0  0  0
  -29.1200   13.3890  -19.0090 Cl  0  0  0  0  0  0  0  0  0  0  0  0
  -26.4869   14.0025  -19.1777 H   0  0  0  0  0  0  0  0  0  0  0  0
  -40.7292   12.6776  -11.3961 H   0  0  0  0  0  0  0  0  0  0  0  0
  -39.6164   11.9008  -10.1482 H   0  0  0  0  0  0  0  0  0  0  0  0
  -41.7439   13.6313   -9.6611 H   0  0  0  0  0  0  0  0  0  0  0  0
  -40.3826   13.0959   -8.5354 H   0  0  0  0  0  0  0  0  0  0  0  0
  -25.0089   13.7774  -15.1610 H   0  0  0  0  0  0  0  0  0  0  0  0
  -27.2869   13.1638  -14.3416 H   0  0  0  0  0  0  0  0  0  0  0  0
  -29.5443   10.9484  -16.9607 H   0  0  0  0  0  0  0  0  0  0  0  0
  -31.4837    9.5710  -16.9040 H   0  0  0  0  0  0  0  0  0  0  0  0
  -34.5385   12.3999  -12.6986 H   0  0  0  0  0  0  0  0  0  0  0  0
  -37.9558   15.3098  -11.8190 H   0  0  0  0  0  0  0  0  0  0  0  0
  -39.7101   15.2649  -11.9618 H   0  0  0  0  0  0  0  0  0  0  0  0
  -38.1238   15.0614   -9.3185 H   0  0  0  0  0  0  0  0  0  0  0  0
  -38.9576   16.5448   -9.9166 H   0  0  0  0  0  0  0  0  0  0  0  0
  -37.8640   10.2298  -14.3466 H   0  0  0  0  0  0  0  0  0  0  0  0
  -39.4594   11.5255  -12.9205 H   0  0  0  0  0  0  0  0  0  0  0  0
  -33.3864   14.0933  -13.6551 H   0  0  0  0  0  0  0  0  0  0  0  0
  -31.9684   13.9932  -12.4689 H   0  0  0  0  0  0  0  0  0  0  0  0
  -32.0774   16.2206  -12.4869 H   0  0  0  0  0  0  0  0  0  0  0  0
  -31.1927   16.0586  -14.0417 H   0  0  0  0  0  0  0  0  0  0  0  0
  -32.9745   16.2864  -14.0417 H   0  0  0  0  0  0  0  0  0  0  0  0
  -40.1277   15.1544   -8.2754 H   0  0  0  0  0  0  0  0  0  0  0  0
  -35.6097    9.5132  -14.7816 H   0  0  0  0  0  0  0  0  0  0  0  0
 35  3  1  0
  2  3  1  0
  2  1  2  0
 34  1  1  0
  3  8  2  0
  1  6  1  0
  8  9  1  0
  8  7  1  0
 10  9  2  0
 10 11  1  0
 12 28  1  0
 12 11  2  0
  6  7  2  0
  9 18  1  0
 28 20  2  0
 11 19  1  0
 20 31  1  0
 20 32  1  0
 19 31  2  0
 19 30  1  0
 18 33  2  0
 18 30  1  0
 32 21  1  0
 30 24  1  0
 22 21  1  0
 22 23  2  0
 21 13  2  0
 25 24  1  0
 23 15  1  0
 13 14  1  0
 15 14  2  0
 15 29  1  0
 14 26  1  0
 16 29  1  0
 16 17  1  0
 29  4  1  0
  4  5  1  0
 17 27  1  0
  5 27  1  0
  2 36  1  0
  4 37  1  0
  4 38  1  0
  5 39  1  0
  5 40  1  0
  6 41  1  0
  7 42  1  0
 10 43  1  0
 12 44  1  0
 13 45  1  0
 16 46  1  0
 16 47  1  0
 17 48  1  0
 17 49  1  0
 22 50  1  0
 23 51  1  0
 24 52  1  0
 24 53  1  0
 25 54  1  0
 25 55  1  0
 25 56  1  0
 27 57  1  0
 32 58  1  0
A    1
CAB
A    2
CAC
A    3
CAD
A    4
CAG
A    5
CAH
A    6
CAJ
A    7
CAK
A    8
CAL
A    9
CAM
A   10
CAN
A   11
CAO
A   12
CAP
A   13
CAR
A   14
CAS
A   15
CAT
A   16
CAV
A   17
CAW
A   18
CAX
A   19
CAZ
A   20
CBB
A   21
CBD
A   22
CBE
A   23
CBF
A   24
CBH
A   25
CBI
A   26
FAF
A   27
NAI
A   28
NAQ
A   29
NAU
A   30
NAY
A   31
NBA
A   32
NBC
A   33
OBG
A   34
CLAA
A   35
CLAE
M  END
