5V1P_XC5_A_401
     RDKit          3D

 46 47  0  0  0  0  0  0  0  0999 V2000
   55.9500    6.0990   14.9520 P   0  0  0  0  0  0  0  0  0  0  0  0
   54.7000    6.1770   15.9520 O   0  0  0  0  0  0  0  0  0  0  0  0
   57.1480    6.5860   15.6590 O   0  0  0  0  0  0  0  0  0  0  0  0
   56.3220    4.3970   14.4500 C   0  0  0  0  0  0  0  0  0  0  0  0
   54.9010    3.3750   13.9580 P   0  0  0  0  0  0  0  0  0  0  0  0
   54.9890    3.0350   12.5070 O   0  0  0  0  0  0  0  0  0  0  0  0
   53.5040    4.0430   14.3020 O   0  0  0  0  0  0  0  0  0  0  0  0
   55.0290    2.0190   14.7810 O   0  0  0  0  0  0  0  0  0  0  0  0
   54.9500    1.8810   16.3650 P   0  0  0  0  0  0  0  0  0  0  0  0
   54.4990    3.2100   16.8440 O   0  0  0  0  0  0  0  0  0  0  0  0
   53.9360    0.7020   16.7320 O   0  0  0  0  0  0  0  0  0  0  0  0
   56.3970    1.5550   16.9510 O   0  0  0  0  0  0  0  0  0  0  0  0
   57.5980    8.2830   10.3920 N   0  0  0  0  0  0  0  0  0  0  0  0
   58.4440    8.6790    9.4170 C   0  0  0  0  0  0  0  0  0  0  0  0
   59.7800    8.7150    9.6140 N   0  0  0  0  0  0  0  0  0  0  0  0
   60.2980    8.3590   10.7870 C   0  0  0  0  0  0  0  0  0  0  0  0
   59.4410    7.9550   11.8240 C   0  0  0  0  0  0  0  0  0  0  0  0
   58.0940    7.9190   11.6020 C   0  0  0  0  0  0  0  0  0  0  0  0
   57.9620    8.9880    8.3380 O   0  0  0  0  0  0  0  0  0  0  0  0
   61.6540    8.3860   10.9940 N   0  0  0  0  0  0  0  0  0  0  0  0
   56.1450    8.2560   10.1180 C   0  0  0  0  0  0  0  0  0  0  0  0
   55.7510    6.8520    9.6490 C   0  0  0  0  0  0  0  0  0  0  0  0
   55.2990    6.1850   10.9700 C   0  0  0  0  0  0  0  0  0  0  0  0
   54.5260    7.3790   11.5970 C   0  0  0  0  0  0  0  0  0  0  0  0
   55.4150    8.4900   11.3220 O   0  0  0  0  0  0  0  0  0  0  0  0
   55.6580    6.9290   13.6660 O   0  0  0  0  0  0  0  0  0  0  0  0
   54.3690    7.1970   13.1120 C   0  0  0  0  0  0  0  0  0  0  0  0
   54.4740    5.0350   10.6900 O   0  0  0  0  0  0  0  0  0  0  0  0
   55.0239    6.1568   16.8873 H   0  0  0  0  0  0  0  0  0  0  0  0
   56.8168    3.8982   15.2964 H   0  0  0  0  0  0  0  0  0  0  0  0
   56.9460    4.4862   13.5485 H   0  0  0  0  0  0  0  0  0  0  0  0
   53.3960    4.0946   15.2847 H   0  0  0  0  0  0  0  0  0  0  0  0
   54.4955    3.2202   17.8339 H   0  0  0  0  0  0  0  0  0  0  0  0
   56.3618    1.5629   17.9403 H   0  0  0  0  0  0  0  0  0  0  0  0
   59.8505    7.6706   12.8045 H   0  0  0  0  0  0  0  0  0  0  0  0
   57.4122    7.5956   12.4023 H   0  0  0  0  0  0  0  0  0  0  0  0
   62.0284    8.3935   11.9535 H   0  0  0  0  0  0  0  0  0  0  0  0
   62.2976    8.3988   10.1899 H   0  0  0  0  0  0  0  0  0  0  0  0
   55.9214    9.0237    9.3626 H   0  0  0  0  0  0  0  0  0  0  0  0
   54.9288    6.8907    8.9193 H   0  0  0  0  0  0  0  0  0  0  0  0
   56.5607    6.3132    9.1351 H   0  0  0  0  0  0  0  0  0  0  0  0
   56.0856    5.7779   11.6224 H   0  0  0  0  0  0  0  0  0  0  0  0
   53.5079    7.5003   11.1986 H   0  0  0  0  0  0  0  0  0  0  0  0
   53.9563    8.1147   13.5564 H   0  0  0  0  0  0  0  0  0  0  0  0
   53.6834    6.3636   13.3252 H   0  0  0  0  0  0  0  0  0  0  0  0
   54.1797    4.6248   11.5416 H   0  0  0  0  0  0  0  0  0  0  0  0
 19 14  2  0
 14 15  1  0
 14 13  1  0
 15 16  2  0
 22 21  1  0
 22 23  1  0
 21 13  1  0
 21 25  1  0
 13 18  1  0
 28 23  1  0
 16 20  1  0
 16 17  1  0
 23 24  1  0
 25 24  1  0
 24 27  1  0
 18 17  2  0
  6  5  2  0
 27 26  1  0
 26  1  1  0
  5  7  1  0
  5  4  1  0
  5  8  1  0
  4  1  1  0
  8  9  1  0
  1  3  2  0
  1  2  1  0
  9 11  2  0
  9 10  1  0
  9 12  1  0
  2 29  1  0
  4 30  1  0
  4 31  1  0
  7 32  1  0
 10 33  1  0
 12 34  1  0
 17 35  1  0
 18 36  1  0
 20 37  1  0
 20 38  1  0
 21 39  1  0
 22 40  1  0
 22 41  1  0
 23 42  1  0
 24 43  1  0
 27 44  1  0
 27 45  1  0
 28 46  1  0
A    1
PA
A    2
O1A
A    3
O2A
A    4
C3A
A    5
PB
A    6
O1B
A    7
O2B
A    8
O3B
A    9
PG
A   10
O1G
A   11
O2G
A   12
O3G
A   13
N1
A   14
C2
A   15
N3
A   16
C4
A   17
C5
A   18
C6
A   19
O2
A   20
N4
A   21
C1'
A   22
C2'
A   23
C3'
A   24
C4'
A   25
O4'
A   26
O5'
A   27
C5'
A   28
O3'
M  END
