5VJG_0BP_A_403
     RDKit          3D

 20 21  0  0  0  0  0  0  0  0999 V2000
    2.4470   12.1880   24.5150 N   0  0  0  0  0  0  0  0  0  0  0  0
    2.4850   11.9360   25.8600 C   0  0  0  0  0  0  0  0  0  0  0  0
    1.3230   11.4950   26.5490 C   0  0  0  0  0  0  0  0  0  0  0  0
    0.1250   11.3530   25.8620 C   0  0  0  0  0  0  0  0  0  0  0  0
    4.0670   11.7810   27.8700 C   0  0  0  0  0  0  0  0  0  0  0  0
    5.3670   11.9340   28.3670 C   0  0  0  0  0  0  0  0  0  0  0  0
    6.3860   12.3250   27.5110 C   0  0  0  0  0  0  0  0  0  0  0  0
    6.1270   12.6060   26.1630 C   0  0  0  0  0  0  0  0  0  0  0  0
    4.8500   12.4690   25.6970 N   0  0  0  0  0  0  0  0  0  0  0  0
    3.8240   12.0780   26.5120 C   0  0  0  0  0  0  0  0  0  0  0  0
    0.0650   11.6430   24.5080 C   0  0  0  0  0  0  0  0  0  0  0  0
    1.2220   12.0740   23.8450 C   0  0  0  0  0  0  0  0  0  0  0  0
    1.3726   11.2667   27.6239 H   0  0  0  0  0  0  0  0  0  0  0  0
   -0.7761   11.0105   26.3919 H   0  0  0  0  0  0  0  0  0  0  0  0
    3.2525   11.4366   28.5242 H   0  0  0  0  0  0  0  0  0  0  0  0
    5.5789   11.7453   29.4298 H   0  0  0  0  0  0  0  0  0  0  0  0
    7.4124   12.4158   27.8961 H   0  0  0  0  0  0  0  0  0  0  0  0
    6.9364   12.9307   25.4926 H   0  0  0  0  0  0  0  0  0  0  0  0
   -0.8821   11.5358   23.9588 H   0  0  0  0  0  0  0  0  0  0  0  0
    1.1671   12.3281   22.7762 H   0  0  0  0  0  0  0  0  0  0  0  0
 12 11  1  0
 12  1  2  0
 11  4  2  0
  1  2  1  0
  9  8  2  0
  9 10  1  0
  2 10  1  0
  2  3  2  0
  4  3  1  0
  8  7  1  0
 10  5  2  0
  7  6  2  0
  5  6  1  0
  3 13  1  0
  4 14  1  0
  5 15  1  0
  6 16  1  0
  7 17  1  0
  8 18  1  0
 11 19  1  0
 12 20  1  0
A    1
N1
A    2
C2
A    3
C3
A    4
C4
A    5
C12
A    6
C11
A    7
C10
A    8
C9
A    9
N8
A   10
C7
A   11
C5
A   12
C6
M  END
