5VLR_9EM_A_4001
     RDKit          3D

 63 67  0  0  0  0  0  0  0  0999 V2000
   44.2210   13.6030   31.3190 C   0  0  0  0  0  0  0  0  0  0  0  0
   45.5480   13.3470   33.3890 C   0  0  0  0  0  0  0  0  0  0  0  0
   43.0720   13.3850   33.4740 C   0  0  0  0  0  0  0  0  0  0  0  0
   42.1610   15.6690   33.9300 C   0  0  0  0  0  0  0  0  0  0  0  0
   38.5960   12.7880   35.8540 C   0  0  0  0  0  0  0  0  0  0  0  0
   40.9960   13.0210   35.8440 C   0  0  0  0  0  0  0  0  0  0  0  0
   38.5100   13.4810   34.6490 C   0  0  0  0  0  0  0  0  0  0  0  0
   45.8950   15.8640   31.2270 O   0  0  0  0  0  0  0  0  0  0  0  0
   45.1950   16.3180   32.1160 C   0  0  0  0  0  0  0  0  0  0  0  0
   45.1730   17.7960   32.3730 C   0  0  0  0  0  0  0  0  0  0  0  0
   44.4060   15.5010   32.9270 N   0  0  0  0  0  0  0  0  0  0  0  0
   43.5980   16.0910   34.0050 C   0  0  0  0  0  0  0  0  0  0  0  0
   44.3080   14.0100   32.7900 C   0  0  0  0  0  0  0  0  0  0  0  0
   42.9710   12.1660   33.5440 O   0  0  0  0  0  0  0  0  0  0  0  0
   42.0960   14.2030   33.9920 N   0  0  0  0  0  0  0  0  0  0  0  0
   40.9200   13.7140   34.6340 C   0  0  0  0  0  0  0  0  0  0  0  0
   39.8320   12.5600   36.4480 C   0  0  0  0  0  0  0  0  0  0  0  0
   39.6750   13.9410   34.0400 C   0  0  0  0  0  0  0  0  0  0  0  0
   37.2090   13.7600   34.0020 C   0  0  0  0  0  0  0  0  0  0  0  0
   36.2090   12.8880   33.6450 C   0  0  0  0  0  0  0  0  0  0  0  0
   35.1440   13.6220   33.0560 C   0  0  0  0  0  0  0  0  0  0  0  0
   35.5130   14.9830   33.0560 C   0  0  0  0  0  0  0  0  0  0  0  0
   34.9700   16.2440   32.6470 C   0  0  0  0  0  0  0  0  0  0  0  0
   33.7610   16.3350   32.0580 N   0  0  0  0  0  0  0  0  0  0  0  0
   35.6600   17.3620   32.8400 N   0  0  0  0  0  0  0  0  0  0  0  0
   36.8620   17.2790   33.4140 C   0  0  0  0  0  0  0  0  0  0  0  0
   37.4810   16.2160   33.8280 N   0  0  0  0  0  0  0  0  0  0  0  0
   36.7620   15.0440   33.6320 N   0  0  0  0  0  0  0  0  0  0  0  0
   33.8940   13.0540   32.5590 C   0  0  0  0  0  0  0  0  0  0  0  0
   32.6210   13.5890   32.7630 C   0  0  0  0  0  0  0  0  0  0  0  0
   31.7590   12.7060   32.1200 C   0  0  0  0  0  0  0  0  0  0  0  0
   32.3980   11.6920   31.5500 N   0  0  0  0  0  0  0  0  0  0  0  0
   33.7210   11.9200   31.8280 N   0  0  0  0  0  0  0  0  0  0  0  0
   34.7250   10.9960   31.3260 C   0  0  0  0  0  0  0  0  0  0  0  0
   34.8070   11.0540   29.8280 C   0  0  0  0  0  0  0  0  0  0  0  0
   35.0530   12.2910   29.4090 F   0  0  0  0  0  0  0  0  0  0  0  0
   33.6620   10.6870   29.2580 F   0  0  0  0  0  0  0  0  0  0  0  0
   35.7510   10.2630   29.3210 F   0  0  0  0  0  0  0  0  0  0  0  0
   43.9915   12.5295   31.2485 H   0  0  0  0  0  0  0  0  0  0  0  0
   43.4261   14.1811   30.8250 H   0  0  0  0  0  0  0  0  0  0  0  0
   45.1827   13.8056   30.8250 H   0  0  0  0  0  0  0  0  0  0  0  0
   45.4870   13.3796   34.4868 H   0  0  0  0  0  0  0  0  0  0  0  0
   45.6012   12.3001   33.0556 H   0  0  0  0  0  0  0  0  0  0  0  0
   46.4482   13.8842   33.0556 H   0  0  0  0  0  0  0  0  0  0  0  0
   41.7214   16.0192   32.9844 H   0  0  0  0  0  0  0  0  0  0  0  0
   41.5986   16.1045   34.7690 H   0  0  0  0  0  0  0  0  0  0  0  0
   37.6802   12.4188   36.3387 H   0  0  0  0  0  0  0  0  0  0  0  0
   41.9726   12.8407   36.3170 H   0  0  0  0  0  0  0  0  0  0  0  0
   45.1703   17.9796   33.4576 H   0  0  0  0  0  0  0  0  0  0  0  0
   46.0643   18.2594   31.9249 H   0  0  0  0  0  0  0  0  0  0  0  0
   44.2683   18.2327   31.9249 H   0  0  0  0  0  0  0  0  0  0  0  0
   44.0112   15.7716   34.9731 H   0  0  0  0  0  0  0  0  0  0  0  0
   43.6354   17.1849   33.8958 H   0  0  0  0  0  0  0  0  0  0  0  0
   39.8892   12.0123   37.4003 H   0  0  0  0  0  0  0  0  0  0  0  0
   39.6152   14.4859   33.0863 H   0  0  0  0  0  0  0  0  0  0  0  0
   36.2294   11.7980   33.7914 H   0  0  0  0  0  0  0  0  0  0  0  0
   32.9104   16.3990   32.6353 H   0  0  0  0  0  0  0  0  0  0  0  0
   33.6878   16.3405   31.0306 H   0  0  0  0  0  0  0  0  0  0  0  0
   37.3950   18.2310   33.5538 H   0  0  0  0  0  0  0  0  0  0  0  0
   32.3575   14.5058   33.3108 H   0  0  0  0  0  0  0  0  0  0  0  0
   30.6670   12.8344   32.0876 H   0  0  0  0  0  0  0  0  0  0  0  0
   34.4586    9.9737   31.6326 H   0  0  0  0  0  0  0  0  0  0  0  0
   35.7028   11.2802   31.7422 H   0  0  0  0  0  0  0  0  0  0  0  0
 37 35  1  0
 38 35  1  0
 36 35  1  0
 35 34  1  0
  8  9  2  0
  1 13  1  0
 34 33  1  0
 32 33  1  0
 32 31  2  0
 33 29  1  0
 24 23  1  0
  9 10  1  0
  9 11  1  0
 31 30  1  0
 29 30  2  0
 29 21  1  0
 23 25  2  0
 23 22  1  0
 13 11  1  0
 13  2  1  0
 13  3  1  0
 25 26  1  0
 11 12  1  0
 22 21  2  0
 22 28  1  0
 21 20  1  0
 26 27  2  0
  3 14  2  0
  3 15  1  0
 28 27  1  0
 28 19  1  0
 20 19  2  0
  4 15  1  0
  4 12  1  0
 15 16  1  0
 19  7  1  0
 18 16  2  0
 18  7  1  0
 16  6  1  0
  7  5  2  0
  6 17  2  0
  5 17  1  0
  1 39  1  0
  1 40  1  0
  1 41  1  0
  2 42  1  0
  2 43  1  0
  2 44  1  0
  4 45  1  0
  4 46  1  0
  5 47  1  0
  6 48  1  0
 10 49  1  0
 10 50  1  0
 10 51  1  0
 12 52  1  0
 12 53  1  0
 17 54  1  0
 18 55  1  0
 20 56  1  0
 24 57  1  0
 24 58  1  0
 26 59  1  0
 30 60  1  0
 31 61  1  0
 34 62  1  0
 34 63  1  0
A    1
C15
A    2
C19
A    3
C23
A    4
C11
A    5
C34
A    6
C27
A    7
C33
A    8
O1
A    9
C2
A   10
C3
A   11
N7
A   12
C8
A   13
C14
A   14
O24
A   15
N25
A   16
C26
A   17
C29
A   18
C31
A   19
C36
A   20
C37
A   21
C39
A   22
C40
A   23
C41
A   24
N42
A   25
N45
A   26
C46
A   27
N48
A   28
N49
A   29
C50
A   30
C51
A   31
C53
A   32
N55
A   33
N56
A   34
C57
A   35
C60
A   36
F61
A   37
F62
A   38
F63
M  END
