5VMP_9FJ_A_503
     RDKit          3D

 43 45  0  0  0  0  0  0  0  0999 V2000
   15.2490    7.7260   53.3830 O   0  0  0  0  0  0  0  0  0  0  0  0
   15.7930    6.5860   53.3840 C   0  0  0  0  0  0  0  0  0  0  0  0
   17.0390    6.4140   53.4900 O   0  0  0  0  0  0  0  0  0  0  0  0
   14.8900    5.3980   53.3120 C   0  0  0  0  0  0  0  0  0  0  0  0
   15.2900    4.1590   53.8070 C   0  0  0  0  0  0  0  0  0  0  0  0
   14.4420    3.0420   53.7610 C   0  0  0  0  0  0  0  0  0  0  0  0
   13.2040    3.1260   53.2450 N   0  0  0  0  0  0  0  0  0  0  0  0
   12.7430    4.3190   52.7570 C   0  0  0  0  0  0  0  0  0  0  0  0
   13.5220    5.5070   52.7410 C   0  0  0  0  0  0  0  0  0  0  0  0
   13.0940    6.7150   52.2520 N   0  0  0  0  0  0  0  0  0  0  0  0
   11.7620    6.9330   51.7140 C   0  0  0  0  0  0  0  0  0  0  0  0
   11.4650    8.3920   51.3430 C   0  0  0  0  0  0  0  0  0  0  0  0
    9.9970    8.5920   51.1190 C   0  0  0  0  0  0  0  0  0  0  0  0
    9.2690    7.8130   50.1970 C   0  0  0  0  0  0  0  0  0  0  0  0
    7.8900    8.0210   49.9590 C   0  0  0  0  0  0  0  0  0  0  0  0
    7.2270    9.0720   50.6220 C   0  0  0  0  0  0  0  0  0  0  0  0
    5.8840    9.3650   50.4380 O   0  0  0  0  0  0  0  0  0  0  0  0
    5.2130    8.7820   49.2890 C   0  0  0  0  0  0  0  0  0  0  0  0
    7.9320    9.8870   51.5320 C   0  0  0  0  0  0  0  0  0  0  0  0
    9.2750    9.6780   51.8020 C   0  0  0  0  0  0  0  0  0  0  0  0
    9.9950   10.6090   52.7680 C   0  0  0  0  0  0  0  0  0  0  0  0
   11.4280   10.7620   52.3280 C   0  0  0  0  0  0  0  0  0  0  0  0
   12.0330    9.3710   52.3720 C   0  0  0  0  0  0  0  0  0  0  0  0
   17.4563    6.3564   54.3859 H   0  0  0  0  0  0  0  0  0  0  0  0
   16.2939    4.0537   54.2441 H   0  0  0  0  0  0  0  0  0  0  0  0
   14.7976    2.0785   54.1551 H   0  0  0  0  0  0  0  0  0  0  0  0
   11.7189    4.3598   52.3576 H   0  0  0  0  0  0  0  0  0  0  0  0
   13.7507    7.5084   52.2670 H   0  0  0  0  0  0  0  0  0  0  0  0
   11.0284    6.6126   52.4685 H   0  0  0  0  0  0  0  0  0  0  0  0
   11.6977    6.3505   50.7831 H   0  0  0  0  0  0  0  0  0  0  0  0
   11.9788    8.6117   50.3955 H   0  0  0  0  0  0  0  0  0  0  0  0
    9.7901    7.0173   49.6445 H   0  0  0  0  0  0  0  0  0  0  0  0
    7.3414    7.3688   49.2635 H   0  0  0  0  0  0  0  0  0  0  0  0
    4.4244    8.0969   49.6336 H   0  0  0  0  0  0  0  0  0  0  0  0
    4.7642    9.5818   48.6817 H   0  0  0  0  0  0  0  0  0  0  0  0
    5.9423    8.2259   48.6817 H   0  0  0  0  0  0  0  0  0  0  0  0
    7.4034   10.7076   52.0392 H   0  0  0  0  0  0  0  0  0  0  0  0
    9.5025   11.5926   52.7680 H   0  0  0  0  0  0  0  0  0  0  0  0
    9.9617   10.1878   53.7836 H   0  0  0  0  0  0  0  0  0  0  0  0
   11.9673   11.4346   53.0112 H   0  0  0  0  0  0  0  0  0  0  0  0
   11.4944   11.1972   51.3199 H   0  0  0  0  0  0  0  0  0  0  0  0
   11.8584    8.9534   53.3745 H   0  0  0  0  0  0  0  0  0  0  0  0
   13.0998    9.4894   52.1311 H   0  0  0  0  0  0  0  0  0  0  0  0
 18 17  1  0
 15 14  2  0
 15 16  1  0
 14 13  1  0
 17 16  1  0
 16 19  2  0
 13 12  1  0
 13 20  2  0
 12 11  1  0
 12 23  1  0
 19 20  1  0
 11 10  1  0
 20 21  1  0
 10  9  1  0
 22 23  1  0
 22 21  1  0
  9  8  1  0
  9  4  2  0
  8  7  2  0
  7  6  1  0
  4  2  1  0
  4  5  1  0
  2  1  2  0
  2  3  1  0
  6  5  2  0
  3 24  1  0
  5 25  1  0
  6 26  1  0
  8 27  1  0
 10 28  1  0
 11 29  1  0
 11 30  1  0
 12 31  1  0
 14 32  1  0
 15 33  1  0
 18 34  1  0
 18 35  1  0
 18 36  1  0
 19 37  1  0
 21 38  1  0
 21 39  1  0
 22 40  1  0
 22 41  1  0
 23 42  1  0
 23 43  1  0
A    1
O9
A    2
C7
A    3
O8
A    4
C6
A    5
C5
A    6
C4
A    7
N3
A    8
C2
A    9
C1
A   10
N10
A   11
C11
A   12
C12
A   13
C17
A   14
C18
A   15
C19
A   16
C20
A   17
O22
A   18
C23
A   19
C21
A   20
C16
A   21
C15
A   22
C14
A   23
C13
M  END
