5VO6_9J4_A_4000
     RDKit          3D

 55 58  0  0  0  0  0  0  0  0999 V2000
    3.7060  -17.0300   -5.0420 C   0  0  0  0  0  0  0  0  0  0  0  0
    2.8990  -16.9330   -6.3550 C   0  0  0  0  0  0  0  0  0  0  0  0
    2.1860  -15.5200   -6.2450 C   0  0  0  0  0  0  0  0  0  0  0  0
    1.6780  -15.7170   -4.8130 C   0  0  0  0  0  0  0  0  0  0  0  0
    2.8960  -16.2050   -4.0300 C   0  0  0  0  0  0  0  0  0  0  0  0
    3.0990  -14.2910   -6.4740 C   0  0  0  0  0  0  0  0  0  0  0  0
    1.0180  -15.3530   -7.2300 C   0  0  0  0  0  0  0  0  0  0  0  0
   -4.1220  -18.7720   -2.2530 C   0  0  0  0  0  0  0  0  0  0  0  0
   -4.6870  -20.0360   -2.1510 C   0  0  0  0  0  0  0  0  0  0  0  0
    0.2560  -11.8040   -3.9990 C   0  0  0  0  0  0  0  0  0  0  0  0
   -2.4970  -19.6250   -3.7980 C   0  0  0  0  0  0  0  0  0  0  0  0
   -1.1210  -15.3570   -3.5970 C   0  0  0  0  0  0  0  0  0  0  0  0
   -2.4080  -14.9700   -3.2270 N   0  0  0  0  0  0  0  0  0  0  0  0
   -2.8720  -13.6870   -3.0860 N   0  0  0  0  0  0  0  0  0  0  0  0
   -1.9840  -12.7870   -3.3470 C   0  0  0  0  0  0  0  0  0  0  0  0
   -0.6390  -12.9810   -3.7540 C   0  0  0  0  0  0  0  0  0  0  0  0
   -0.1790  -14.3080   -3.8830 C   0  0  0  0  0  0  0  0  0  0  0  0
   -1.1370  -16.7540   -3.6180 C   0  0  0  0  0  0  0  0  0  0  0  0
   -2.4740  -17.1750   -3.2590 C   0  0  0  0  0  0  0  0  0  0  0  0
   -3.2200  -16.0440   -3.0380 C   0  0  0  0  0  0  0  0  0  0  0  0
    1.0960  -14.5500   -4.1810 N   0  0  0  0  0  0  0  0  0  0  0  0
   -0.1510  -10.6110   -3.5770 N   0  0  0  0  0  0  0  0  0  0  0  0
    1.3500  -11.9280   -4.5750 O   0  0  0  0  0  0  0  0  0  0  0  0
   -3.0180  -18.5480   -3.0810 C   0  0  0  0  0  0  0  0  0  0  0  0
    3.8560  -17.0270   -7.4790 N   0  0  0  0  0  0  0  0  0  0  0  0
   -4.1650  -21.0940   -2.8730 C   0  0  0  0  0  0  0  0  0  0  0  0
   -3.0750  -20.8880   -3.6990 C   0  0  0  0  0  0  0  0  0  0  0  0
    1.9830  -18.1390   -6.5290 C   0  0  0  0  0  0  0  0  0  0  0  0
    3.7887  -18.0764   -4.7130 H   0  0  0  0  0  0  0  0  0  0  0  0
    4.7352  -16.6588   -5.1555 H   0  0  0  0  0  0  0  0  0  0  0  0
    0.8380  -16.4270   -4.8291 H   0  0  0  0  0  0  0  0  0  0  0  0
    2.5855  -16.8303   -3.1799 H   0  0  0  0  0  0  0  0  0  0  0  0
    3.4801  -15.3736   -3.6087 H   0  0  0  0  0  0  0  0  0  0  0  0
    3.4067  -13.8768   -5.5026 H   0  0  0  0  0  0  0  0  0  0  0  0
    3.9905  -14.5971   -7.0411 H   0  0  0  0  0  0  0  0  0  0  0  0
    2.5485  -13.5259   -7.0411 H   0  0  0  0  0  0  0  0  0  0  0  0
    0.0814  -15.2191   -6.6689 H   0  0  0  0  0  0  0  0  0  0  0  0
    1.1955  -14.4711   -7.8630 H   0  0  0  0  0  0  0  0  0  0  0  0
    0.9412  -16.2493   -7.8630 H   0  0  0  0  0  0  0  0  0  0  0  0
   -4.5476  -17.9377   -1.6761 H   0  0  0  0  0  0  0  0  0  0  0  0
   -5.5537  -20.1968   -1.4930 H   0  0  0  0  0  0  0  0  0  0  0  0
   -1.6218  -19.4754   -4.4474 H   0  0  0  0  0  0  0  0  0  0  0  0
   -2.3102  -11.7419   -3.2408 H   0  0  0  0  0  0  0  0  0  0  0  0
   -0.2900  -17.4120   -3.8622 H   0  0  0  0  0  0  0  0  0  0  0  0
   -4.2834  -16.0124   -2.7583 H   0  0  0  0  0  0  0  0  0  0  0  0
    1.7603  -13.8049   -3.9273 H   0  0  0  0  0  0  0  0  0  0  0  0
   -0.2172  -10.4168   -2.5676 H   0  0  0  0  0  0  0  0  0  0  0  0
   -0.4001   -9.8808   -4.2594 H   0  0  0  0  0  0  0  0  0  0  0  0
    4.8125  -17.1209   -7.1086 H   0  0  0  0  0  0  0  0  0  0  0  0
    3.6287  -17.8497   -8.0555 H   0  0  0  0  0  0  0  0  0  0  0  0
   -4.6147  -22.0945   -2.7906 H   0  0  0  0  0  0  0  0  0  0  0  0
   -2.6627  -21.7258   -4.2805 H   0  0  0  0  0  0  0  0  0  0  0  0
    1.6911  -18.5233   -5.5405 H   0  0  0  0  0  0  0  0  0  0  0  0
    1.0832  -17.8387   -7.0860 H   0  0  0  0  0  0  0  0  0  0  0  0
    2.5137  -18.9252   -7.0860 H   0  0  0  0  0  0  0  0  0  0  0  0
 25  2  1  0
  7  3  1  0
 28  2  1  0
  6  3  1  0
  2  3  1  0
  2  1  1  0
  3  4  1  0
  1  5  1  0
  4 21  1  0
  4  5  1  0
 23 10  2  0
 21 17  1  0
 10 16  1  0
 10 22  1  0
 17 16  2  0
 17 12  1  0
 11 27  2  0
 11 24  1  0
 16 15  1  0
 27 26  1  0
 18 12  2  0
 18 19  1  0
 12 13  1  0
 15 14  2  0
 19 24  1  0
 19 20  2  0
 13 14  1  0
 13 20  1  0
 24  8  2  0
 26  9  2  0
  8  9  1  0
  1 29  1  0
  1 30  1  0
  4 31  1  0
  5 32  1  0
  5 33  1  0
  6 34  1  0
  6 35  1  0
  6 36  1  0
  7 37  1  0
  7 38  1  0
  7 39  1  0
  8 40  1  0
  9 41  1  0
 11 42  1  0
 15 43  1  0
 18 44  1  0
 20 45  1  0
 21 46  1  0
 22 47  1  0
 22 48  1  0
 25 49  1  0
 25 50  1  0
 26 51  1  0
 27 52  1  0
 28 53  1  0
 28 54  1  0
 28 55  1  0
A    1
C18
A    2
C17
A    3
C16
A    4
C15
A    5
C19
A    6
C20
A    7
C22
A    8
C23
A    9
C24
A   10
C11
A   11
C27
A   12
C1
A   13
N2
A   14
N3
A   15
C4
A   16
C5
A   17
C6
A   18
C7
A   19
C8
A   20
C9
A   21
N10
A   22
N12
A   23
O13
A   24
C14
A   25
N21
A   26
C25
A   27
C26
A   28
C28
M  END
