5VP0_9GJ_A_1003
     RDKit          3D

 50 52  0  0  0  0  0  0  0  0999 V2000
   26.9630    5.3670   25.6190 N   0  0  0  0  0  0  0  0  0  0  0  0
   25.3650    3.8930   26.6650 N   0  0  0  0  0  0  0  0  0  0  0  0
   28.1310    5.8860   28.0410 C   0  0  0  0  0  0  0  0  0  0  0  0
   28.0080    6.1980   25.7060 C   0  0  0  0  0  0  0  0  0  0  0  0
   24.4010    4.3870   22.1970 C   0  0  0  0  0  0  0  0  0  0  0  0
   27.0510    5.0350   27.9460 C   0  0  0  0  0  0  0  0  0  0  0  0
   23.5090    6.3590   20.4840 C   0  0  0  0  0  0  0  0  0  0  0  0
   24.2510    6.6910   21.5910 C   0  0  0  0  0  0  0  0  0  0  0  0
   24.6950    3.5600   25.4950 C   0  0  0  0  0  0  0  0  0  0  0  0
   30.5890    7.2090   27.9540 C   0  0  0  0  0  0  0  0  0  0  0  0
   25.9470    2.4670   22.4070 C   0  0  0  0  0  0  0  0  0  0  0  0
   23.6560    4.0620   21.0760 C   0  0  0  0  0  0  0  0  0  0  0  0
   23.2100    5.0400   20.2150 C   0  0  0  0  0  0  0  0  0  0  0  0
   24.6930    5.7130   22.4570 C   0  0  0  0  0  0  0  0  0  0  0  0
   28.6290    6.4890   26.8990 C   0  0  0  0  0  0  0  0  0  0  0  0
   26.4690    4.7820   26.7220 C   0  0  0  0  0  0  0  0  0  0  0  0
   25.4040    3.7500   29.2270 C   0  0  0  0  0  0  0  0  0  0  0  0
   24.7020    3.5690   27.9170 C   0  0  0  0  0  0  0  0  0  0  0  0
   28.1080    2.5260   21.5390 C   0  0  0  0  0  0  0  0  0  0  0  0
   24.8600    3.2790   23.0820 C   0  0  0  0  0  0  0  0  0  0  0  0
   21.8570    7.9280   19.9450 C   0  0  0  0  0  0  0  0  0  0  0  0
   26.5880    4.4320   29.1180 N   0  0  0  0  0  0  0  0  0  0  0  0
   25.3790    3.7510   24.3280 N   0  0  0  0  0  0  0  0  0  0  0  0
   24.9410    3.3170   30.2770 O   0  0  0  0  0  0  0  0  0  0  0  0
   23.5580    3.1210   25.4810 O   0  0  0  0  0  0  0  0  0  0  0  0
   29.7000    7.3750   26.8550 O   0  0  0  0  0  0  0  0  0  0  0  0
   23.1000    7.3440   19.6070 O   0  0  0  0  0  0  0  0  0  0  0  0
   27.0610    3.3030   22.1130 O   0  0  0  0  0  0  0  0  0  0  0  0
   24.5480    7.9740   21.8300 F   0  0  0  0  0  0  0  0  0  0  0  0
   21.7810    8.3880   21.2140 F   0  0  0  0  0  0  0  0  0  0  0  0
   20.8900    7.0130   19.7250 F   0  0  0  0  0  0  0  0  0  0  0  0
   21.7230    9.0150   19.1480 F   0  0  0  0  0  0  0  0  0  0  0  0
   28.5944    6.0848   29.0186 H   0  0  0  0  0  0  0  0  0  0  0  0
   28.3862    6.6679   24.7861 H   0  0  0  0  0  0  0  0  0  0  0  0
   30.0308    7.3132   28.8961 H   0  0  0  0  0  0  0  0  0  0  0  0
   31.0468    6.2099   27.9076 H   0  0  0  0  0  0  0  0  0  0  0  0
   31.3765    7.9756   27.9076 H   0  0  0  0  0  0  0  0  0  0  0  0
   25.5556    2.0381   21.4727 H   0  0  0  0  0  0  0  0  0  0  0  0
   26.2674    1.6583   23.0803 H   0  0  0  0  0  0  0  0  0  0  0  0
   23.4171    3.0081   20.8703 H   0  0  0  0  0  0  0  0  0  0  0  0
   22.6228    4.7724   19.3242 H   0  0  0  0  0  0  0  0  0  0  0  0
   25.2747    5.9865   23.3497 H   0  0  0  0  0  0  0  0  0  0  0  0
   23.7937    4.1880   27.9600 H   0  0  0  0  0  0  0  0  0  0  0  0
   24.5824    2.4774   27.8537 H   0  0  0  0  0  0  0  0  0  0  0  0
   28.7130    2.0770   22.3404 H   0  0  0  0  0  0  0  0  0  0  0  0
   27.6745    1.7293   20.9167 H   0  0  0  0  0  0  0  0  0  0  0  0
   28.7449    3.1718   20.9167 H   0  0  0  0  0  0  0  0  0  0  0  0
   23.9712    2.6603   23.2751 H   0  0  0  0  0  0  0  0  0  0  0  0
   27.1777    4.5050   29.9593 H   0  0  0  0  0  0  0  0  0  0  0  0
   26.2836    4.2432   24.3459 H   0  0  0  0  0  0  0  0  0  0  0  0
 32 21  1  0
 27 21  1  0
 27  7  1  0
 31 21  1  0
 21 30  1  0
 13  7  2  0
 13 12  1  0
  7  8  1  0
 12  5  2  0
 19 28  1  0
  8 29  1  0
  8 14  2  0
 28 11  1  0
  5 14  1  0
  5 20  1  0
 11 20  1  0
 20 23  1  0
 23  9  1  0
 25  9  2  0
  9  2  1  0
  1  4  2  0
  1 16  1  0
  4 15  1  0
  2 16  1  0
  2 18  1  0
 16  6  2  0
 26 15  1  0
 26 10  1  0
 15  3  2  0
 18 17  1  0
  6  3  1  0
  6 22  1  0
 22 17  1  0
 17 24  2  0
  3 33  1  0
  4 34  1  0
 10 35  1  0
 10 36  1  0
 10 37  1  0
 11 38  1  0
 11 39  1  0
 12 40  1  0
 13 41  1  0
 14 42  1  0
 18 43  1  0
 18 44  1  0
 19 45  1  0
 19 46  1  0
 19 47  1  0
 20 48  1  0
 22 49  1  0
 23 50  1  0
A    1
N1
A    2
N3
A    3
C4
A    4
C5
A    5
C6
A    6
C7
A    7
C8
A    8
C10
A    9
C13
A   10
C15
A   11
C17
A   12
C1
A   13
C2
A   14
C3
A   15
C9
A   16
C11
A   17
C12
A   18
C14
A   19
C16
A   20
C18
A   21
C19
A   22
N2
A   23
N4
A   24
O1
A   25
O2
A   26
O3
A   27
O4
A   28
O5
A   29
F1
A   30
F2
A   31
F3
A   32
F4
M  END
