5VQQ_9JP_A_601
     RDKit          3D

 60 63  0  0  0  0  0  0  0  0999 V2000
  847.5250  -33.3090  144.7380 C   0  0  0  0  0  0  0  0  0  0  0  0
  844.9530  -35.8750  140.1170 N   0  0  0  0  0  0  0  0  0  0  0  0
  848.2800  -33.0440  142.0760 C   0  0  0  0  0  0  0  0  0  0  0  0
  844.4210  -38.2620  141.5040 C   0  0  0  0  0  0  0  0  0  0  0  0
  843.6550  -37.0580  141.7540 C   0  0  0  0  0  0  0  0  0  0  0  0
  843.9610  -35.9480  141.0590 C   0  0  0  0  0  0  0  0  0  0  0  0
  844.3750  -33.2420  144.8660 C   0  0  0  0  0  0  0  0  0  0  0  0
  843.7030  -34.1210  145.7100 C   0  0  0  0  0  0  0  0  0  0  0  0
  842.7820  -33.6380  146.6900 C   0  0  0  0  0  0  0  0  0  0  0  0
  842.5450  -32.2320  146.7960 C   0  0  0  0  0  0  0  0  0  0  0  0
  843.2410  -31.3410  145.9140 C   0  0  0  0  0  0  0  0  0  0  0  0
  844.1320  -31.8710  144.9660 C   0  0  0  0  0  0  0  0  0  0  0  0
  842.0840  -34.5140  147.5740 C   0  0  0  0  0  0  0  0  0  0  0  0
  846.9570  -33.3600  142.3950 C   0  0  0  0  0  0  0  0  0  0  0  0
  841.1860  -34.0480  148.5300 C   0  0  0  0  0  0  0  0  0  0  0  0
  840.9620  -32.6820  148.6320 C   0  0  0  0  0  0  0  0  0  0  0  0
  841.6200  -31.7890  147.7830 C   0  0  0  0  0  0  0  0  0  0  0  0
  840.5000  -34.9950  149.4080 C   0  0  0  0  0  0  0  0  0  0  0  0
  843.9700  -35.6190  145.5840 C   0  0  0  0  0  0  0  0  0  0  0  0
  843.8290  -29.1090  146.7440 C   0  0  0  0  0  0  0  0  0  0  0  0
  844.9490  -29.7300  147.5840 C   0  0  0  0  0  0  0  0  0  0  0  0
  841.9700  -29.3870  145.1440 C   0  0  0  0  0  0  0  0  0  0  0  0
  846.5630  -33.4860  143.7310 C   0  0  0  0  0  0  0  0  0  0  0  0
  848.8480  -32.9950  144.4050 C   0  0  0  0  0  0  0  0  0  0  0  0
  849.2360  -32.8610  143.0730 C   0  0  0  0  0  0  0  0  0  0  0  0
  846.4360  -33.8940  140.0390 C   0  0  0  0  0  0  0  0  0  0  0  0
  845.2470  -34.6290  139.3980 C   0  0  0  0  0  0  0  0  0  0  0  0
  845.7240  -36.9880  139.8330 C   0  0  0  0  0  0  0  0  0  0  0  0
  845.6220  -28.7980  148.2600 F   0  0  0  0  0  0  0  0  0  0  0  0
  845.3900  -38.1040  140.5570 N   0  0  0  0  0  0  0  0  0  0  0  0
  843.0530  -29.9310  145.9670 N   0  0  0  0  0  0  0  0  0  0  0  0
  839.9590  -35.7520  150.1030 N   0  0  0  0  0  0  0  0  0  0  0  0
  845.2370  -33.8090  143.9530 O   0  0  0  0  0  0  0  0  0  0  0  0
  846.0670  -33.5180  141.3520 O   0  0  0  0  0  0  0  0  0  0  0  0
  846.6410  -37.0240  139.0100 O   0  0  0  0  0  0  0  0  0  0  0  0
  844.2180  -39.3240  142.0860 O   0  0  0  0  0  0  0  0  0  0  0  0
  843.6810  -27.8780  146.8050 O   0  0  0  0  0  0  0  0  0  0  0  0
  847.2377  -33.4176  145.7943 H   0  0  0  0  0  0  0  0  0  0  0  0
  848.5716  -32.9380  141.0207 H   0  0  0  0  0  0  0  0  0  0  0  0
  842.8421  -37.0518  142.4950 H   0  0  0  0  0  0  0  0  0  0  0  0
  843.3760  -35.0385  141.2603 H   0  0  0  0  0  0  0  0  0  0  0  0
  844.6537  -31.1853  144.2822 H   0  0  0  0  0  0  0  0  0  0  0  0
  842.2620  -35.5968  147.4972 H   0  0  0  0  0  0  0  0  0  0  0  0
  840.2603  -32.2994  149.3878 H   0  0  0  0  0  0  0  0  0  0  0  0
  841.4174  -30.7122  147.8800 H   0  0  0  0  0  0  0  0  0  0  0  0
  844.0491  -36.0630  146.5873 H   0  0  0  0  0  0  0  0  0  0  0  0
  843.1424  -36.0942  145.0370 H   0  0  0  0  0  0  0  0  0  0  0  0
  844.9108  -35.7790  145.0370 H   0  0  0  0  0  0  0  0  0  0  0  0
  844.5089  -30.4422  148.2974 H   0  0  0  0  0  0  0  0  0  0  0  0
  845.6490  -30.2402  146.9060 H   0  0  0  0  0  0  0  0  0  0  0  0
  841.1783  -28.9893  145.7960 H   0  0  0  0  0  0  0  0  0  0  0  0
  842.3624  -28.5790  144.5090 H   0  0  0  0  0  0  0  0  0  0  0  0
  841.5561  -30.1842  144.5090 H   0  0  0  0  0  0  0  0  0  0  0  0
  849.5903  -32.8523  145.2042 H   0  0  0  0  0  0  0  0  0  0  0  0
  850.2765  -32.6156  142.8140 H   0  0  0  0  0  0  0  0  0  0  0  0
  847.3105  -34.5603  140.0743 H   0  0  0  0  0  0  0  0  0  0  0  0
  846.6961  -33.0037  139.4476 H   0  0  0  0  0  0  0  0  0  0  0  0
  844.3613  -33.9774  139.4293 H   0  0  0  0  0  0  0  0  0  0  0  0
  845.5054  -34.8757  138.3576 H   0  0  0  0  0  0  0  0  0  0  0  0
  845.9518  -38.9438  140.3568 H   0  0  0  0  0  0  0  0  0  0  0  0
 35 28  2  0
 27 26  1  0
 27  2  1  0
 28  2  1  0
 28 30  1  0
 26 34  1  0
  2  6  1  0
 30  4  1  0
  6  5  2  0
 34 14  1  0
  4  5  1  0
  4 36  2  0
  3 14  2  0
  3 25  1  0
 14 23  1  0
 25 24  2  0
 23 33  1  0
 23  1  2  0
 33  7  1  0
 24  1  1  0
  7 12  1  0
  7  8  2  0
 12 11  2  0
 22 31  1  0
 19  8  1  0
  8  9  1  0
 11 31  1  0
 11 10  1  0
 31 20  1  0
  9 10  2  0
  9 13  1  0
 20 37  2  0
 20 21  1  0
 10 17  1  0
 13 15  2  0
 21 29  1  0
 17 16  2  0
 15 16  1  0
 15 18  1  0
 18 32  3  0
  1 38  1  0
  3 39  1  0
  5 40  1  0
  6 41  1  0
 12 42  1  0
 13 43  1  0
 16 44  1  0
 17 45  1  0
 19 46  1  0
 19 47  1  0
 19 48  1  0
 21 49  1  0
 21 50  1  0
 22 51  1  0
 22 52  1  0
 22 53  1  0
 24 54  1  0
 25 55  1  0
 26 56  1  0
 26 57  1  0
 27 58  1  0
 27 59  1  0
 30 60  1  0
A    1
C4
A    2
N1
A    3
C1
A    4
C10
A    5
C11
A    6
C12
A    7
C13
A    8
C14
A    9
C15
A   10
C16
A   11
C17
A   12
C18
A   13
C19
A   14
C2
A   15
C20
A   16
C21
A   17
C22
A   18
C23
A   19
C24
A   20
C25
A   21
C26
A   22
C27
A   23
C3
A   24
C5
A   25
C6
A   26
C7
A   27
C8
A   28
C9
A   29
F1
A   30
N2
A   31
N3
A   32
N4
A   33
O1
A   34
O2
A   35
O3
A   36
O4
A   37
O5
M  END
