5VQR_9KG_A_601
     RDKit          3D

 61 64  0  0  0  0  0  0  0  0999 V2000
  844.1670  -36.9820  140.1940 N   0  0  0  0  0  0  0  0  0  0  0  0
  846.2800  -34.2800  142.2790 C   0  0  0  0  0  0  0  0  0  0  0  0
  844.6070  -39.2160  140.6110 N   0  0  0  0  0  0  0  0  0  0  0  0
  842.1540  -30.9160  145.6990 N   0  0  0  0  0  0  0  0  0  0  0  0
  846.8160  -34.2860  144.6400 C   0  0  0  0  0  0  0  0  0  0  0  0
  839.3650  -36.7170  150.0280 N   0  0  0  0  0  0  0  0  0  0  0  0
  848.5610  -33.9090  143.0060 C   0  0  0  0  0  0  0  0  0  0  0  0
  845.7470  -35.0920  140.0190 C   0  0  0  0  0  0  0  0  0  0  0  0
  844.9290  -38.0940  139.8890 C   0  0  0  0  0  0  0  0  0  0  0  0
  847.6230  -34.0300  141.9870 C   0  0  0  0  0  0  0  0  0  0  0  0
  843.6570  -39.3840  141.5760 C   0  0  0  0  0  0  0  0  0  0  0  0
  842.8990  -38.1770  141.8470 C   0  0  0  0  0  0  0  0  0  0  0  0
  843.1900  -37.0570  141.1560 C   0  0  0  0  0  0  0  0  0  0  0  0
  843.6330  -34.1660  144.7050 C   0  0  0  0  0  0  0  0  0  0  0  0
  843.0130  -35.0650  145.5690 C   0  0  0  0  0  0  0  0  0  0  0  0
  842.0750  -34.6030  146.5390 C   0  0  0  0  0  0  0  0  0  0  0  0
  841.7740  -33.2040  146.6020 C   0  0  0  0  0  0  0  0  0  0  0  0
  842.4300  -32.3050  145.6960 C   0  0  0  0  0  0  0  0  0  0  0  0
  843.3350  -32.8080  144.7550 C   0  0  0  0  0  0  0  0  0  0  0  0
  841.4300  -35.4950  147.4430 C   0  0  0  0  0  0  0  0  0  0  0  0
  840.5180  -35.0330  148.3870 C   0  0  0  0  0  0  0  0  0  0  0  0
  840.2330  -33.6750  148.4490 C   0  0  0  0  0  0  0  0  0  0  0  0
  840.8340  -32.7700  147.5800 C   0  0  0  0  0  0  0  0  0  0  0  0
  839.8740  -35.9700  149.3020 C   0  0  0  0  0  0  0  0  0  0  0  0
  843.3420  -36.5540  145.4900 C   0  0  0  0  0  0  0  0  0  0  0  0
  842.7500  -30.0170  146.5480 C   0  0  0  0  0  0  0  0  0  0  0  0
  843.7350  -30.4950  147.5040 C   0  0  0  0  0  0  0  0  0  0  0  0
  841.1490  -30.5140  144.7050 C   0  0  0  0  0  0  0  0  0  0  0  0
  844.3990  -29.6550  148.3210 C   0  0  0  0  0  0  0  0  0  0  0  0
  845.8600  -34.4010  143.6130 C   0  0  0  0  0  0  0  0  0  0  0  0
  848.1550  -34.0370  144.3310 C   0  0  0  0  0  0  0  0  0  0  0  0
  844.4700  -35.7450  139.4650 C   0  0  0  0  0  0  0  0  0  0  0  0
  844.5110  -34.6590  143.7730 O   0  0  0  0  0  0  0  0  0  0  0  0
  845.4230  -34.3780  141.1980 O   0  0  0  0  0  0  0  0  0  0  0  0
  845.8310  -38.1340  139.0480 O   0  0  0  0  0  0  0  0  0  0  0  0
  843.4750  -40.4560  142.1440 O   0  0  0  0  0  0  0  0  0  0  0  0
  842.4680  -28.8120  146.5100 O   0  0  0  0  0  0  0  0  0  0  0  0
  845.1642  -40.0542  140.3923 H   0  0  0  0  0  0  0  0  0  0  0  0
  846.5070  -34.3927  145.6903 H   0  0  0  0  0  0  0  0  0  0  0  0
  849.6167  -33.7135  142.7666 H   0  0  0  0  0  0  0  0  0  0  0  0
  846.4889  -35.8703  140.2509 H   0  0  0  0  0  0  0  0  0  0  0  0
  846.1684  -34.4044  139.2710 H   0  0  0  0  0  0  0  0  0  0  0  0
  847.9419  -33.9277  140.9392 H   0  0  0  0  0  0  0  0  0  0  0  0
  842.1004  -38.1760  142.6035 H   0  0  0  0  0  0  0  0  0  0  0  0
  842.6101  -36.1485  141.3759 H   0  0  0  0  0  0  0  0  0  0  0  0
  843.8175  -32.1203  144.0449 H   0  0  0  0  0  0  0  0  0  0  0  0
  841.6573  -36.5701  147.3939 H   0  0  0  0  0  0  0  0  0  0  0  0
  839.5180  -33.3079  149.2000 H   0  0  0  0  0  0  0  0  0  0  0  0
  840.5791  -31.7022  147.6493 H   0  0  0  0  0  0  0  0  0  0  0  0
  843.4326  -36.9639  146.5067 H   0  0  0  0  0  0  0  0  0  0  0  0
  842.5382  -37.0791  144.9532 H   0  0  0  0  0  0  0  0  0  0  0  0
  844.2922  -36.6916  144.9532 H   0  0  0  0  0  0  0  0  0  0  0  0
  843.9441  -31.5734  147.5619 H   0  0  0  0  0  0  0  0  0  0  0  0
  840.2470  -30.1532  145.2209 H   0  0  0  0  0  0  0  0  0  0  0  0
  841.5575  -29.7101  144.0751 H   0  0  0  0  0  0  0  0  0  0  0  0
  840.8903  -31.3779  144.0751 H   0  0  0  0  0  0  0  0  0  0  0  0
  845.1383  -30.0502  149.0332 H   0  0  0  0  0  0  0  0  0  0  0  0
  844.2020  -28.5737  148.2761 H   0  0  0  0  0  0  0  0  0  0  0  0
  848.8938  -33.9414  145.1404 H   0  0  0  0  0  0  0  0  0  0  0  0
  843.6287  -35.0449  139.5747 H   0  0  0  0  0  0  0  0  0  0  0  0
  844.6262  -35.9871  138.4034 H   0  0  0  0  0  0  0  0  0  0  0  0
 35  9  2  0
 32  8  1  0
 32  1  1  0
  9  1  1  0
  9  3  1  0
  8 34  1  0
  1 13  1  0
  3 11  1  0
 13 12  2  0
 34  2  1  0
 11 12  1  0
 11 36  2  0
 10  2  2  0
 10  7  1  0
  2 30  1  0
  7 31  2  0
 30 33  1  0
 30  5  2  0
 33 14  1  0
 31  5  1  0
 14 19  1  0
 14 15  2  0
 28  4  1  0
 19 18  2  0
 25 15  1  0
 15 16  1  0
 18  4  1  0
 18 17  1  0
  4 26  1  0
 37 26  2  0
 16 17  2  0
 16 20  1  0
 26 27  1  0
 17 23  1  0
 20 21  2  0
 27 29  2  3
 23 22  2  0
 21 22  1  0
 21 24  1  0
 24  6  3  0
  3 38  1  0
  5 39  1  0
  7 40  1  0
  8 41  1  0
  8 42  1  0
 10 43  1  0
 12 44  1  0
 13 45  1  0
 19 46  1  0
 20 47  1  0
 22 48  1  0
 23 49  1  0
 25 50  1  0
 25 51  1  0
 25 52  1  0
 27 53  1  0
 28 54  1  0
 28 55  1  0
 28 56  1  0
 29 57  1  0
 29 58  1  0
 31 59  1  0
 32 60  1  0
 32 61  1  0
A    1
N1
A    2
C2
A    3
N2
A    4
N3
A    5
C4
A    6
N4
A    7
C6
A    8
C7
A    9
C9
A   10
C1
A   11
C10
A   12
C11
A   13
C12
A   14
C13
A   15
C14
A   16
C15
A   17
C16
A   18
C17
A   19
C18
A   20
C19
A   21
C20
A   22
C21
A   23
C22
A   24
C23
A   25
C24
A   26
C25
A   27
C26
A   28
C27
A   29
C28
A   30
C3
A   31
C5
A   32
C8
A   33
O1
A   34
O2
A   35
O3
A   36
O4
A   37
O5
M  END
