5VQS_9KD_A_601
     RDKit          3D

 58 61  0  0  0  0  0  0  0  0999 V2000
  460.2940    3.2700  117.7770 C   0  0  0  0  0  0  0  0  0  0  0  0
  460.5510    2.7230  119.0580 C   0  0  0  0  0  0  0  0  0  0  0  0
  462.8310    3.6080  118.9490 C   0  0  0  0  0  0  0  0  0  0  0  0
  458.4560    5.2220  124.5350 O   0  0  0  0  0  0  0  0  0  0  0  0
  458.4780    1.5470  119.0800 C   0  0  0  0  0  0  0  0  0  0  0  0
  458.7950   -1.5020  120.0550 C   0  0  0  0  0  0  0  0  0  0  0  0
  459.6110   -1.0350  122.7160 C   0  0  0  0  0  0  0  0  0  0  0  0
  461.9680    3.1180  122.0200 C   0  0  0  0  0  0  0  0  0  0  0  0
  462.6910    2.7100  123.1600 C   0  0  0  0  0  0  0  0  0  0  0  0
  462.5910    3.4350  124.3680 C   0  0  0  0  0  0  0  0  0  0  0  0
  461.7520    4.5820  124.4370 C   0  0  0  0  0  0  0  0  0  0  0  0
  461.0250    4.9960  123.2890 C   0  0  0  0  0  0  0  0  0  0  0  0
  463.3220    3.0250  125.5080 C   0  0  0  0  0  0  0  0  0  0  0  0
  462.4000    4.8740  126.7840 C   0  0  0  0  0  0  0  0  0  0  0  0
  461.6680    5.2940  125.6580 C   0  0  0  0  0  0  0  0  0  0  0  0
  463.9830    3.3110  127.8790 C   0  0  0  0  0  0  0  0  0  0  0  0
  463.5850    1.4830  123.0670 C   0  0  0  0  0  0  0  0  0  0  0  0
  458.9810    6.1880  123.9850 C   0  0  0  0  0  0  0  0  0  0  0  0
  458.3680    7.5000  123.9120 C   0  0  0  0  0  0  0  0  0  0  0  0
  457.1620    7.6770  124.4780 C   0  0  0  0  0  0  0  0  0  0  0  0
  461.8250    2.9050  119.6400 C   0  0  0  0  0  0  0  0  0  0  0  0
  462.5680    4.1500  117.6770 C   0  0  0  0  0  0  0  0  0  0  0  0
  461.2980    3.9800  117.0930 C   0  0  0  0  0  0  0  0  0  0  0  0
  462.1000    2.3750  120.8730 O   0  0  0  0  0  0  0  0  0  0  0  0
  459.6180    2.0190  119.7840 O   0  0  0  0  0  0  0  0  0  0  0  0
  457.6560    0.6660  120.0280 C   0  0  0  0  0  0  0  0  0  0  0  0
  458.4500   -0.3110  120.7350 N   0  0  0  0  0  0  0  0  0  0  0  0
  459.5540   -2.4270  120.7580 N   0  0  0  0  0  0  0  0  0  0  0  0
  460.0000   -2.2820  122.0680 C   0  0  0  0  0  0  0  0  0  0  0  0
  458.8700   -0.1240  122.0420 C   0  0  0  0  0  0  0  0  0  0  0  0
  461.1350    4.2540  122.0900 C   0  0  0  0  0  0  0  0  0  0  0  0
  463.2280    3.7400  126.7130 C   0  0  0  0  0  0  0  0  0  0  0  0
  458.4600   -1.7410  118.8970 O   0  0  0  0  0  0  0  0  0  0  0  0
  460.6670   -3.1710  122.5890 O   0  0  0  0  0  0  0  0  0  0  0  0
  460.1810    6.1420  123.3800 N   0  0  0  0  0  0  0  0  0  0  0  0
  464.5820    2.9700  128.8060 N   0  0  0  0  0  0  0  0  0  0  0  0
  459.3046    3.1391  117.3145 H   0  0  0  0  0  0  0  0  0  0  0  0
  463.8244    3.7337  119.4044 H   0  0  0  0  0  0  0  0  0  0  0  0
  457.8696    2.3994  118.7435 H   0  0  0  0  0  0  0  0  0  0  0  0
  458.7905    0.9666  118.1994 H   0  0  0  0  0  0  0  0  0  0  0  0
  459.9196   -0.8344  123.7526 H   0  0  0  0  0  0  0  0  0  0  0  0
  463.9699    2.1380  125.4498 H   0  0  0  0  0  0  0  0  0  0  0  0
  462.3239    5.4367  127.7261 H   0  0  0  0  0  0  0  0  0  0  0  0
  461.0247    6.1836  125.7270 H   0  0  0  0  0  0  0  0  0  0  0  0
  463.8379    1.1360  124.0797 H   0  0  0  0  0  0  0  0  0  0  0  0
  463.0559    0.6839  122.5270 H   0  0  0  0  0  0  0  0  0  0  0  0
  464.5077    1.7417  122.5270 H   0  0  0  0  0  0  0  0  0  0  0  0
  458.8786    8.3318  123.4047 H   0  0  0  0  0  0  0  0  0  0  0  0
  456.6745    8.6622  124.4371 H   0  0  0  0  0  0  0  0  0  0  0  0
  456.6624    6.8366  124.9822 H   0  0  0  0  0  0  0  0  0  0  0  0
  463.3521    4.7047  117.1407 H   0  0  0  0  0  0  0  0  0  0  0  0
  461.0902    4.4034  116.0993 H   0  0  0  0  0  0  0  0  0  0  0  0
  457.1621    1.3146  120.7666 H   0  0  0  0  0  0  0  0  0  0  0  0
  456.9325    0.1123  119.4116 H   0  0  0  0  0  0  0  0  0  0  0  0
  459.8093   -3.2961  120.2676 H   0  0  0  0  0  0  0  0  0  0  0  0
  458.5886    0.8071  122.5556 H   0  0  0  0  0  0  0  0  0  0  0  0
  460.5648    4.5662  121.2026 H   0  0  0  0  0  0  0  0  0  0  0  0
  460.5206    7.0111  122.9438 H   0  0  0  0  0  0  0  0  0  0  0  0
 23 22  1  0
 23  1  2  0
 22  3  2  0
  1  2  1  0
 33  6  2  0
  3 21  1  0
  2 21  2  0
  2 25  1  0
  5 25  1  0
  5 26  1  0
 21 24  1  0
 26 27  1  0
  6 27  1  0
  6 28  1  0
 27 30  1  0
 28 29  1  0
 24  8  1  0
  8 31  1  0
  8  9  2  0
 30  7  2  0
 29 34  2  0
 29  7  1  0
 31 12  2  0
 17  9  1  0
  9 10  1  0
 12 35  1  0
 12 11  1  0
 35 18  1  0
 19 18  1  0
 19 20  2  3
 18  4  2  0
 10 11  2  0
 10 13  1  0
 11 15  1  0
 13 32  2  0
 15 14  2  0
 32 14  1  0
 32 16  1  0
 16 36  3  0
  1 37  1  0
  3 38  1  0
  5 39  1  0
  5 40  1  0
  7 41  1  0
 13 42  1  0
 14 43  1  0
 15 44  1  0
 17 45  1  0
 17 46  1  0
 17 47  1  0
 19 48  1  0
 20 49  1  0
 20 50  1  0
 22 51  1  0
 23 52  1  0
 26 53  1  0
 26 54  1  0
 28 55  1  0
 30 56  1  0
 31 57  1  0
 35 58  1  0
A    1
C1
A    2
C2
A    3
C4
A    4
O5
A    5
C7
A    6
C9
A    7
C11
A    8
C13
A    9
C14
A   10
C15
A   11
C16
A   12
C17
A   13
C19
A   14
C21
A   15
C22
A   16
C23
A   17
C24
A   18
C25
A   19
C26
A   20
C27
A   21
C3
A   22
C5
A   23
C6
A   24
O1
A   25
O2
A   26
C8
A   27
N1
A   28
N2
A   29
C10
A   30
C12
A   31
C18
A   32
C20
A   33
O3
A   34
O4
A   35
N3
A   36
N4
M  END
