5VUA_8GX_B_403
     RDKit          3D

 51 55  0  0  0  0  0  0  0  0999 V2000
   17.3860  -37.2590   -4.3470 C   0  0  0  0  0  0  0  0  0  0  0  0
   17.5410  -35.5910   -0.1370 C   0  0  0  0  0  0  0  0  0  0  0  0
   19.2140  -38.0510    2.2070 C   0  0  0  0  0  0  0  0  0  0  0  0
   20.4660  -39.0670    0.6290 C   0  0  0  0  0  0  0  0  0  0  0  0
   19.8190  -37.9700   -1.4140 C   0  0  0  0  0  0  0  0  0  0  0  0
   16.5170  -34.4880   -0.1340 C   0  0  0  0  0  0  0  0  0  0  0  0
   16.4300  -32.1730   -6.2380 C   0  0  0  0  0  0  0  0  0  0  0  0
   17.2590  -33.0940   -5.5300 O   0  0  0  0  0  0  0  0  0  0  0  0
   17.0090  -33.3820   -4.1820 C   0  0  0  0  0  0  0  0  0  0  0  0
   16.0570  -32.6520   -3.4560 C   0  0  0  0  0  0  0  0  0  0  0  0
   15.8270  -32.9410   -2.1100 C   0  0  0  0  0  0  0  0  0  0  0  0
   16.5430  -33.9600   -1.5110 C   0  0  0  0  0  0  0  0  0  0  0  0
   17.5070  -34.7040   -2.2450 C   0  0  0  0  0  0  0  0  0  0  0  0
   17.7730  -34.4500   -3.6060 C   0  0  0  0  0  0  0  0  0  0  0  0
   18.7970  -35.1910   -4.4680 C   0  0  0  0  0  0  0  0  0  0  0  0
   18.2090  -36.4090   -5.2220 N   0  0  0  0  0  0  0  0  0  0  0  0
   17.3800  -36.0630   -6.4330 C   0  0  0  0  0  0  0  0  0  0  0  0
   17.0010  -37.3530   -7.2180 C   0  0  0  0  0  0  0  0  0  0  0  0
   16.1940  -38.2870   -6.3140 N   0  0  0  0  0  0  0  0  0  0  0  0
   16.9990  -38.5780   -5.0590 C   0  0  0  0  0  0  0  0  0  0  0  0
   18.0910  -35.6640   -1.4400 O   0  0  0  0  0  0  0  0  0  0  0  0
   17.8730  -36.3590    0.9080 C   0  0  0  0  0  0  0  0  0  0  0  0
   18.8640  -37.4340    1.0150 C   0  0  0  0  0  0  0  0  0  0  0  0
   20.1750  -39.0310    1.9950 N   0  0  0  0  0  0  0  0  0  0  0  0
   19.6570  -38.0680   -0.0190 C   0  0  0  0  0  0  0  0  0  0  0  0
   20.7230  -38.8120   -2.0290 C   0  0  0  0  0  0  0  0  0  0  0  0
   21.4920  -39.7640   -1.3960 N   0  0  0  0  0  0  0  0  0  0  0  0
   21.3620  -39.8890   -0.0730 C   0  0  0  0  0  0  0  0  0  0  0  0
   15.8300  -34.1200    0.8050 O   0  0  0  0  0  0  0  0  0  0  0  0
   17.9556  -37.4956   -3.4362 H   0  0  0  0  0  0  0  0  0  0  0  0
   16.4646  -36.7137   -4.0946 H   0  0  0  0  0  0  0  0  0  0  0  0
   18.7875  -37.7980    3.1889 H   0  0  0  0  0  0  0  0  0  0  0  0
   19.2396  -37.2406   -1.9991 H   0  0  0  0  0  0  0  0  0  0  0  0
   15.8728  -31.5540   -5.5194 H   0  0  0  0  0  0  0  0  0  0  0  0
   17.0567  -31.5267   -6.8701 H   0  0  0  0  0  0  0  0  0  0  0  0
   15.7216  -32.7284   -6.8701 H   0  0  0  0  0  0  0  0  0  0  0  0
   15.4895  -31.8489   -3.9489 H   0  0  0  0  0  0  0  0  0  0  0  0
   15.0866  -32.3661   -1.5344 H   0  0  0  0  0  0  0  0  0  0  0  0
   19.6091  -35.5449   -3.8159 H   0  0  0  0  0  0  0  0  0  0  0  0
   19.1507  -34.4808   -5.2299 H   0  0  0  0  0  0  0  0  0  0  0  0
   17.9581  -35.3960   -7.0894 H   0  0  0  0  0  0  0  0  0  0  0  0
   16.4578  -35.5624   -6.1029 H   0  0  0  0  0  0  0  0  0  0  0  0
   16.3971  -37.0824   -8.0967 H   0  0  0  0  0  0  0  0  0  0  0  0
   17.9187  -37.8642   -7.5444 H   0  0  0  0  0  0  0  0  0  0  0  0
   15.3047  -37.8354   -6.0569 H   0  0  0  0  0  0  0  0  0  0  0  0
   16.3957  -39.1946   -4.3765 H   0  0  0  0  0  0  0  0  0  0  0  0
   17.9175  -39.1136   -5.3409 H   0  0  0  0  0  0  0  0  0  0  0  0
   17.3140  -36.1506    1.8322 H   0  0  0  0  0  0  0  0  0  0  0  0
   20.5995  -39.6278    2.7192 H   0  0  0  0  0  0  0  0  0  0  0  0
   20.8397  -38.7147   -3.1185 H   0  0  0  0  0  0  0  0  0  0  0  0
   21.9585  -40.6380    0.4684 H   0  0  0  0  0  0  0  0  0  0  0  0
 18 17  1  0
 18 19  1  0
 17 16  1  0
 19 20  1  0
  7  8  1  0
  8  9  1  0
 16 15  1  0
 16  1  1  0
 20  1  1  0
 15 14  1  0
  9 14  2  0
  9 10  1  0
 14 13  1  0
 10 11  2  0
 13 12  2  0
 13 21  1  0
 11 12  1  0
 26  5  1  0
 26 27  2  0
 12  6  1  0
 21  2  1  0
  5 25  2  0
 27 28  1  0
  2  6  1  0
  2 22  2  0
  6 29  2  0
 28  4  2  0
 25  4  1  0
 25 23  1  0
  4 24  1  0
 22 23  1  0
 23  3  2  0
 24  3  1  0
  1 30  1  0
  1 31  1  0
  3 32  1  0
  5 33  1  0
  7 34  1  0
  7 35  1  0
  7 36  1  0
 10 37  1  0
 11 38  1  0
 15 39  1  0
 15 40  1  0
 17 41  1  0
 17 42  1  0
 18 43  1  0
 18 44  1  0
 19 45  1  0
 20 46  1  0
 20 47  1  0
 22 48  1  0
 24 49  1  0
 26 50  1  0
 28 51  1  0
A    1
C15
A    2
C17
A    3
C20
A    4
C22
A    5
C24
A    6
C28
A    7
C01
A    8
O02
A    9
C03
A   10
C04
A   11
C05
A   12
C06
A   13
C07
A   14
C08
A   15
C09
A   16
N10
A   17
C11
A   18
C12
A   19
N13
A   20
C14
A   21
O16
A   22
C18
A   23
C19
A   24
N21
A   25
C23
A   26
C25
A   27
N26
A   28
C27
A   29
O29
M  END
