5VUB_8GU_B_402
     RDKit          3D

 51 55  0  0  0  0  0  0  0  0999 V2000
   41.2840    3.4450    3.2020 C   0  0  0  0  0  0  0  0  0  0  0  0
   39.8490    2.5110   -0.8930 C   0  0  0  0  0  0  0  0  0  0  0  0
   43.0070    2.1640   -2.9520 C   0  0  0  0  0  0  0  0  0  0  0  0
   44.3640    1.6460   -1.2170 C   0  0  0  0  0  0  0  0  0  0  0  0
   45.2000    1.2080    0.9440 C   0  0  0  0  0  0  0  0  0  0  0  0
   38.3930    2.8900   -0.9750 C   0  0  0  0  0  0  0  0  0  0  0  0
   36.1660    1.8490    5.1560 C   0  0  0  0  0  0  0  0  0  0  0  0
   37.3160    1.5080    4.3720 O   0  0  0  0  0  0  0  0  0  0  0  0
   37.4560    1.8890    3.0410 C   0  0  0  0  0  0  0  0  0  0  0  0
   36.3950    2.3870    2.2690 C   0  0  0  0  0  0  0  0  0  0  0  0
   36.6000    2.7420    0.9300 C   0  0  0  0  0  0  0  0  0  0  0  0
   37.8590    2.6140    0.3690 C   0  0  0  0  0  0  0  0  0  0  0  0
   38.9300    2.1160    1.1400 C   0  0  0  0  0  0  0  0  0  0  0  0
   38.7650    1.7370    2.4900 C   0  0  0  0  0  0  0  0  0  0  0  0
   39.9140    1.2210    3.3220 C   0  0  0  0  0  0  0  0  0  0  0  0
   40.8110    2.2800    4.0240 N   0  0  0  0  0  0  0  0  0  0  0  0
   39.9570    2.8290    5.1550 C   0  0  0  0  0  0  0  0  0  0  0  0
   40.7080    3.8470    6.0290 C   0  0  0  0  0  0  0  0  0  0  0  0
   41.1350    5.0140    5.1640 N   0  0  0  0  0  0  0  0  0  0  0  0
   42.0270    4.5080    4.0760 C   0  0  0  0  0  0  0  0  0  0  0  0
   40.0820    2.0630    0.4130 O   0  0  0  0  0  0  0  0  0  0  0  0
   40.7800    2.5790   -1.8600 C   0  0  0  0  0  0  0  0  0  0  0  0
   42.2010    2.2360   -1.8270 C   0  0  0  0  0  0  0  0  0  0  0  0
   44.3070    1.8140   -2.5950 N   0  0  0  0  0  0  0  0  0  0  0  0
   43.0460    1.9020   -0.6920 C   0  0  0  0  0  0  0  0  0  0  0  0
   42.8260    1.8070    0.6530 N   0  0  0  0  0  0  0  0  0  0  0  0
   43.8790    1.4740    1.4110 C   0  0  0  0  0  0  0  0  0  0  0  0
   45.4470    1.2990   -0.3990 C   0  0  0  0  0  0  0  0  0  0  0  0
   37.7940    3.3270   -1.9360 O   0  0  0  0  0  0  0  0  0  0  0  0
   41.9721    3.0777    2.4264 H   0  0  0  0  0  0  0  0  0  0  0  0
   40.4032    3.9268    2.7525 H   0  0  0  0  0  0  0  0  0  0  0  0
   42.6682    2.3560   -3.9808 H   0  0  0  0  0  0  0  0  0  0  0  0
   46.0015    0.9361    1.6467 H   0  0  0  0  0  0  0  0  0  0  0  0
   36.4157    1.7749    6.2247 H   0  0  0  0  0  0  0  0  0  0  0  0
   35.8551    2.8780    4.9226 H   0  0  0  0  0  0  0  0  0  0  0  0
   35.3444    1.1558    4.9226 H   0  0  0  0  0  0  0  0  0  0  0  0
   35.3971    2.4991    2.7181 H   0  0  0  0  0  0  0  0  0  0  0  0
   35.7629    3.1215    0.3257 H   0  0  0  0  0  0  0  0  0  0  0  0
   39.4920    0.5730    4.1043 H   0  0  0  0  0  0  0  0  0  0  0  0
   40.5784    0.7138    2.6069 H   0  0  0  0  0  0  0  0  0  0  0  0
   39.0742    3.3217    4.7215 H   0  0  0  0  0  0  0  0  0  0  0  0
   39.6769    1.9825    5.7992 H   0  0  0  0  0  0  0  0  0  0  0  0
   40.0459    4.2047    6.8313 H   0  0  0  0  0  0  0  0  0  0  0  0
   41.5928    3.3722    6.4782 H   0  0  0  0  0  0  0  0  0  0  0  0
   41.6445    5.7014    5.7374 H   0  0  0  0  0  0  0  0  0  0  0  0
   42.9187    4.0466    4.5254 H   0  0  0  0  0  0  0  0  0  0  0  0
   42.3170    5.3532    3.4345 H   0  0  0  0  0  0  0  0  0  0  0  0
   40.4155    2.9513   -2.8288 H   0  0  0  0  0  0  0  0  0  0  0  0
   45.0968    1.6986   -3.2460 H   0  0  0  0  0  0  0  0  0  0  0  0
   43.7089    1.3987    2.4952 H   0  0  0  0  0  0  0  0  0  0  0  0
   46.4471    1.1090   -0.8158 H   0  0  0  0  0  0  0  0  0  0  0  0
  3 24  1  0
  3 23  2  0
 24  4  1  0
 29  6  2  0
 22 23  1  0
 22  2  2  0
 23 25  1  0
  4 25  2  0
  4 28  1  0
  6  2  1  0
  6 12  1  0
  2 21  1  0
 25 26  1  0
 28  5  2  0
 12 11  1  0
 12 13  2  0
 21 13  1  0
 26 27  2  0
 11 10  2  0
  5 27  1  0
 13 14  1  0
 10  9  1  0
 14  9  2  0
 14 15  1  0
  9  8  1  0
  1 16  1  0
  1 20  1  0
 15 16  1  0
 16 17  1  0
 20 19  1  0
  8  7  1  0
 17 18  1  0
 19 18  1  0
  1 30  1  0
  1 31  1  0
  3 32  1  0
  5 33  1  0
  7 34  1  0
  7 35  1  0
  7 36  1  0
 10 37  1  0
 11 38  1  0
 15 39  1  0
 15 40  1  0
 17 41  1  0
 17 42  1  0
 18 43  1  0
 18 44  1  0
 19 45  1  0
 20 46  1  0
 20 47  1  0
 22 48  1  0
 24 49  1  0
 27 50  1  0
 28 51  1  0
A    1
C15
A    2
C17
A    3
C20
A    4
C22
A    5
C26
A    6
C28
A    7
C01
A    8
O02
A    9
C03
A   10
C04
A   11
C05
A   12
C06
A   13
C07
A   14
C08
A   15
C09
A   16
N10
A   17
C11
A   18
C12
A   19
N13
A   20
C14
A   21
O16
A   22
C18
A   23
C19
A   24
N21
A   25
C23
A   26
N24
A   27
C25
A   28
C27
A   29
O29
M  END
