5VUC_8GR_B_402
     RDKit          3D

 52 56  0  0  0  0  0  0  0  0999 V2000
   17.5040  -36.0400   -6.5880 C   0  0  0  0  0  0  0  0  0  0  0  0
   17.7220  -35.6800   -0.3370 C   0  0  0  0  0  0  0  0  0  0  0  0
   19.3510  -38.0460    1.7760 C   0  0  0  0  0  0  0  0  0  0  0  0
   20.6200  -39.1810    0.2680 C   0  0  0  0  0  0  0  0  0  0  0  0
   20.0610  -38.1500   -1.8660 C   0  0  0  0  0  0  0  0  0  0  0  0
   21.6690  -39.9710   -1.7620 C   0  0  0  0  0  0  0  0  0  0  0  0
   16.6650  -34.6240   -0.3320 C   0  0  0  0  0  0  0  0  0  0  0  0
   16.5270  -32.0600   -6.3060 C   0  0  0  0  0  0  0  0  0  0  0  0
   17.2420  -33.1960   -5.8130 O   0  0  0  0  0  0  0  0  0  0  0  0
   17.0790  -33.5230   -4.4700 C   0  0  0  0  0  0  0  0  0  0  0  0
   16.1070  -32.8240   -3.7350 C   0  0  0  0  0  0  0  0  0  0  0  0
   15.9390  -33.1390   -2.3990 C   0  0  0  0  0  0  0  0  0  0  0  0
   16.6470  -34.0930   -1.7360 C   0  0  0  0  0  0  0  0  0  0  0  0
   17.6560  -34.8360   -2.4660 C   0  0  0  0  0  0  0  0  0  0  0  0
   17.8020  -34.5340   -3.8030 C   0  0  0  0  0  0  0  0  0  0  0  0
   18.8710  -35.2680   -4.6120 C   0  0  0  0  0  0  0  0  0  0  0  0
   18.2730  -36.4790   -5.4000 N   0  0  0  0  0  0  0  0  0  0  0  0
   17.5070  -37.3200   -4.4730 C   0  0  0  0  0  0  0  0  0  0  0  0
   17.0690  -38.5970   -5.1830 C   0  0  0  0  0  0  0  0  0  0  0  0
   16.2170  -38.2600   -6.3920 N   0  0  0  0  0  0  0  0  0  0  0  0
   16.9030  -37.2470   -7.3160 C   0  0  0  0  0  0  0  0  0  0  0  0
   18.2520  -35.7540   -1.6290 O   0  0  0  0  0  0  0  0  0  0  0  0
   18.0890  -36.4370    0.7280 C   0  0  0  0  0  0  0  0  0  0  0  0
   19.0780  -37.4910    0.5040 C   0  0  0  0  0  0  0  0  0  0  0  0
   20.2840  -39.0620    1.6350 N   0  0  0  0  0  0  0  0  0  0  0  0
   19.8730  -38.2060   -0.4620 C   0  0  0  0  0  0  0  0  0  0  0  0
   20.9360  -39.0120   -2.5020 C   0  0  0  0  0  0  0  0  0  0  0  0
   21.5200  -40.0620   -0.3880 C   0  0  0  0  0  0  0  0  0  0  0  0
   16.0130  -34.2960    0.5840 O   0  0  0  0  0  0  0  0  0  0  0  0
   18.1741  -35.5008   -7.2737 H   0  0  0  0  0  0  0  0  0  0  0  0
   16.6872  -35.3810   -6.2587 H   0  0  0  0  0  0  0  0  0  0  0  0
   18.8964  -37.7236    2.7243 H   0  0  0  0  0  0  0  0  0  0  0  0
   19.5028  -37.4101   -2.4584 H   0  0  0  0  0  0  0  0  0  0  0  0
   22.3619  -40.6488   -2.2821 H   0  0  0  0  0  0  0  0  0  0  0  0
   16.1532  -31.4661   -5.4589 H   0  0  0  0  0  0  0  0  0  0  0  0
   17.1990  -31.4416   -6.9192 H   0  0  0  0  0  0  0  0  0  0  0  0
   15.6788  -32.3984   -6.9192 H   0  0  0  0  0  0  0  0  0  0  0  0
   15.4940  -32.0445   -4.2110 H   0  0  0  0  0  0  0  0  0  0  0  0
   15.1800  -32.5792   -1.8329 H   0  0  0  0  0  0  0  0  0  0  0  0
   19.6461  -35.6381   -3.9248 H   0  0  0  0  0  0  0  0  0  0  0  0
   19.2939  -34.5609   -5.3408 H   0  0  0  0  0  0  0  0  0  0  0  0
   18.1362  -37.5791   -3.6087 H   0  0  0  0  0  0  0  0  0  0  0  0
   16.6184  -36.7698   -4.1300 H   0  0  0  0  0  0  0  0  0  0  0  0
   16.4837  -39.2166   -4.4876 H   0  0  0  0  0  0  0  0  0  0  0  0
   17.9620  -39.1463   -5.5158 H   0  0  0  0  0  0  0  0  0  0  0  0
   15.3235  -37.8626   -6.0684 H   0  0  0  0  0  0  0  0  0  0  0  0
   16.1588  -36.8792   -8.0378 H   0  0  0  0  0  0  0  0  0  0  0  0
   17.7394  -37.7743   -7.7980 H   0  0  0  0  0  0  0  0  0  0  0  0
   17.6576  -36.2639    1.7250 H   0  0  0  0  0  0  0  0  0  0  0  0
   20.6683  -39.6348    2.3999 H   0  0  0  0  0  0  0  0  0  0  0  0
   21.0636  -38.9519   -3.5929 H   0  0  0  0  0  0  0  0  0  0  0  0
   22.0907  -40.8062    0.1869 H   0  0  0  0  0  0  0  0  0  0  0  0
 21  1  1  0
 21 20  1  0
  1 17  1  0
 20 19  1  0
  8  9  1  0
  9 10  1  0
 17 16  1  0
 17 18  1  0
 19 18  1  0
 16 15  1  0
 10 15  2  0
 10 11  1  0
 15 14  1  0
 11 12  2  0
 14 13  2  0
 14 22  1  0
 27  6  2  0
 27  5  1  0
 12 13  1  0
  6 28  1  0
 13  7  1  0
  5 26  2  0
 22  2  1  0
 28  4  2  0
  2  7  1  0
  2 23  2  0
  7 29  2  0
 26  4  1  0
 26 24  1  0
  4 25  1  0
 23 24  1  0
 24  3  2  0
 25  3  1  0
  1 30  1  0
  1 31  1  0
  3 32  1  0
  5 33  1  0
  6 34  1  0
  8 35  1  0
  8 36  1  0
  8 37  1  0
 11 38  1  0
 12 39  1  0
 16 40  1  0
 16 41  1  0
 18 42  1  0
 18 43  1  0
 19 44  1  0
 19 45  1  0
 20 46  1  0
 21 47  1  0
 21 48  1  0
 23 49  1  0
 25 50  1  0
 27 51  1  0
 28 52  1  0
A    1
C15
A    2
C17
A    3
C20
A    4
C22
A    5
C24
A    6
C26
A    7
C28
A    8
C01
A    9
O02
A   10
C03
A   11
C04
A   12
C05
A   13
C06
A   14
C07
A   15
C08
A   16
C09
A   17
N10
A   18
C11
A   19
C12
A   20
N13
A   21
C14
A   22
O16
A   23
C18
A   24
C19
A   25
N21
A   26
C23
A   27
C25
A   28
C27
A   29
O29
M  END
