5VUP_9P4_A_804
     RDKit          3D

 42 44  0  0  0  0  0  0  0  0999 V2000
    3.0220    6.9330   29.1370 F   0  0  0  0  0  0  0  0  0  0  0  0
    2.7270    5.6740   28.7620 C   0  0  0  0  0  0  0  0  0  0  0  0
    1.4440    5.1640   28.9490 C   0  0  0  0  0  0  0  0  0  0  0  0
    1.1420    3.9110   28.5830 N   0  0  0  0  0  0  0  0  0  0  0  0
    2.0760    3.1240   28.0270 C   0  0  0  0  0  0  0  0  0  0  0  0
    3.7090    4.8770   28.1870 C   0  0  0  0  0  0  0  0  0  0  0  0
    3.3780    3.5800   27.8170 C   0  0  0  0  0  0  0  0  0  0  0  0
    4.4170    2.6790   27.1860 C   0  0  0  0  0  0  0  0  0  0  0  0
    5.7110    3.4520   26.9610 C   0  0  0  0  0  0  0  0  0  0  0  0
    6.3940    2.9510   25.6950 C   0  0  0  0  0  0  0  0  0  0  0  0
    7.7900    3.4140   25.6110 N   0  0  0  0  0  0  0  0  0  0  0  0
    8.5500    2.2470   25.1510 C   0  0  0  0  0  0  0  0  0  0  0  0
    9.9130    2.4950   24.5390 C   0  0  0  0  0  0  0  0  0  0  0  0
   10.3290    3.6990   23.9560 C   0  0  0  0  0  0  0  0  0  0  0  0
   11.6110    3.8060   23.3920 C   0  0  0  0  0  0  0  0  0  0  0  0
   10.7790    1.4140   24.5810 C   0  0  0  0  0  0  0  0  0  0  0  0
   12.0560    1.5170   24.0460 C   0  0  0  0  0  0  0  0  0  0  0  0
   12.8640    0.4330   24.1170 N   0  0  0  0  0  0  0  0  0  0  0  0
   12.4750    2.7040   23.4380 C   0  0  0  0  0  0  0  0  0  0  0  0
   13.7580    2.7590   22.8950 C   0  0  0  0  0  0  0  0  0  0  0  0
   14.5660    1.6200   22.9750 C   0  0  0  0  0  0  0  0  0  0  0  0
   14.1100    0.4590   23.6080 C   0  0  0  0  0  0  0  0  0  0  0  0
   14.8780   -0.6660   23.7120 N   0  0  0  0  0  0  0  0  0  0  0  0
    0.6687    5.7985   29.4032 H   0  0  0  0  0  0  0  0  0  0  0  0
    1.8098    2.0986   27.7308 H   0  0  0  0  0  0  0  0  0  0  0  0
    4.7261    5.2647   28.0283 H   0  0  0  0  0  0  0  0  0  0  0  0
    4.0408    2.3099   26.2205 H   0  0  0  0  0  0  0  0  0  0  0  0
    4.6155    1.8313   27.8583 H   0  0  0  0  0  0  0  0  0  0  0  0
    6.3803    3.3030   27.8211 H   0  0  0  0  0  0  0  0  0  0  0  0
    5.4821    4.5224   26.8525 H   0  0  0  0  0  0  0  0  0  0  0  0
    5.8413    3.3238   24.8201 H   0  0  0  0  0  0  0  0  0  0  0  0
    6.3977    1.8513   25.7189 H   0  0  0  0  0  0  0  0  0  0  0  0
    8.1251    3.7231   26.5346 H   0  0  0  0  0  0  0  0  0  0  0  0
    7.9383    1.7330   24.3949 H   0  0  0  0  0  0  0  0  0  0  0  0
    8.7547    1.6691   26.0643 H   0  0  0  0  0  0  0  0  0  0  0  0
    9.6493    4.5637   23.9398 H   0  0  0  0  0  0  0  0  0  0  0  0
   11.9333    4.7454   22.9190 H   0  0  0  0  0  0  0  0  0  0  0  0
   10.4529    0.4693   25.0406 H   0  0  0  0  0  0  0  0  0  0  0  0
   14.1265    3.6774   22.4145 H   0  0  0  0  0  0  0  0  0  0  0  0
   15.5736    1.6375   22.5342 H   0  0  0  0  0  0  0  0  0  0  0  0
   15.1292   -1.0340   24.6406 H   0  0  0  0  0  0  0  0  0  0  0  0
   15.2058   -1.1462   22.8618 H   0  0  0  0  0  0  0  0  0  0  0  0
 20 21  1  0
 20 19  2  0
 21 22  2  0
 15 19  1  0
 15 14  2  0
 19 17  1  0
 22 23  1  0
 22 18  1  0
 14 13  1  0
 17 18  2  0
 17 16  1  0
 13 16  2  0
 13 12  1  0
 12 11  1  0
 11 10  1  0
 10  9  1  0
  9  8  1  0
  8  7  1  0
  7  5  2  0
  7  6  1  0
  5  4  1  0
  6  2  2  0
  4  3  2  0
  2  3  1  0
  2  1  1  0
  3 24  1  0
  5 25  1  0
  6 26  1  0
  8 27  1  0
  8 28  1  0
  9 29  1  0
  9 30  1  0
 10 31  1  0
 10 32  1  0
 11 33  1  0
 12 34  1  0
 12 35  1  0
 14 36  1  0
 15 37  1  0
 16 38  1  0
 20 39  1  0
 21 40  1  0
 23 41  1  0
 23 42  1  0
A    1
F23
A    2
C23
A    3
C22
A    4
N21
A    5
C26
A    6
C24
A    7
C25
A    8
C15
A    9
C14
A   10
C13
A   11
N12
A   12
C11
A   13
C08
A   14
C07
A   15
C06
A   16
C09
A   17
C10
A   18
N01
A   19
C05
A   20
C04
A   21
C03
A   22
C02
A   23
N02
M  END
