5VUS_9PM_A_803
     RDKit          3D

 41 43  0  0  0  0  0  0  0  0999 V2000
   -0.2640    2.9350   28.6360 N   0  0  0  0  0  0  0  0  0  0  0  0
    0.8670    3.0970   28.4550 C   0  0  0  0  0  0  0  0  0  0  0  0
    2.1210    3.2130   28.1990 C   0  0  0  0  0  0  0  0  0  0  0  0
    2.6740    4.4530   27.8500 C   0  0  0  0  0  0  0  0  0  0  0  0
    1.6590    5.9240   27.7680 Cl  0  0  0  0  0  0  0  0  0  0  0  0
    4.0300    4.5420   27.5710 C   0  0  0  0  0  0  0  0  0  0  0  0
    2.9180    2.0850   28.2590 C   0  0  0  0  0  0  0  0  0  0  0  0
    4.2750    2.1790   27.9790 C   0  0  0  0  0  0  0  0  0  0  0  0
    4.8290    3.4050   27.6410 C   0  0  0  0  0  0  0  0  0  0  0  0
    6.3000    3.4840   27.3250 C   0  0  0  0  0  0  0  0  0  0  0  0
    6.4520    3.1790   25.8410 C   0  0  0  0  0  0  0  0  0  0  0  0
    7.7820    3.5910   25.3740 N   0  0  0  0  0  0  0  0  0  0  0  0
    8.6160    2.3900   25.3750 C   0  0  0  0  0  0  0  0  0  0  0  0
    9.9510    2.5520   24.6850 C   0  0  0  0  0  0  0  0  0  0  0  0
   10.8430    1.4880   24.7530 C   0  0  0  0  0  0  0  0  0  0  0  0
   10.2930    3.7170   23.9950 C   0  0  0  0  0  0  0  0  0  0  0  0
   11.5390    3.8120   23.3760 C   0  0  0  0  0  0  0  0  0  0  0  0
   12.4310    2.7410   23.4500 C   0  0  0  0  0  0  0  0  0  0  0  0
   13.6740    2.8060   22.8310 C   0  0  0  0  0  0  0  0  0  0  0  0
   14.5380    1.7230   22.9210 C   0  0  0  0  0  0  0  0  0  0  0  0
   14.1600    0.5850   23.6510 C   0  0  0  0  0  0  0  0  0  0  0  0
   14.9880   -0.4860   23.7660 N   0  0  0  0  0  0  0  0  0  0  0  0
   12.9440    0.5420   24.2370 N   0  0  0  0  0  0  0  0  0  0  0  0
   12.0870    1.5850   24.1520 C   0  0  0  0  0  0  0  0  0  0  0  0
    4.4730    5.5102   27.2948 H   0  0  0  0  0  0  0  0  0  0  0  0
    2.4776    1.1137   28.5283 H   0  0  0  0  0  0  0  0  0  0  0  0
    4.9100    1.2820   28.0252 H   0  0  0  0  0  0  0  0  0  0  0  0
    6.8550    2.7451   27.9216 H   0  0  0  0  0  0  0  0  0  0  0  0
    6.7007    4.4800   27.5647 H   0  0  0  0  0  0  0  0  0  0  0  0
    5.6827    3.7263   25.2766 H   0  0  0  0  0  0  0  0  0  0  0  0
    6.3343    2.0969   25.6823 H   0  0  0  0  0  0  0  0  0  0  0  0
    8.1779    4.2990   26.0087 H   0  0  0  0  0  0  0  0  0  0  0  0
    8.0621    1.5869   24.8669 H   0  0  0  0  0  0  0  0  0  0  0  0
    8.8346    2.1625   26.4288 H   0  0  0  0  0  0  0  0  0  0  0  0
   10.5604    0.5676   25.2850 H   0  0  0  0  0  0  0  0  0  0  0  0
    9.5831    4.5555   23.9401 H   0  0  0  0  0  0  0  0  0  0  0  0
   11.8175    4.7266   22.8320 H   0  0  0  0  0  0  0  0  0  0  0  0
   13.9704    3.7075   22.2748 H   0  0  0  0  0  0  0  0  0  0  0  0
   15.5173    1.7566   22.4211 H   0  0  0  0  0  0  0  0  0  0  0  0
   15.2557   -0.8322   24.6984 H   0  0  0  0  0  0  0  0  0  0  0  0
   15.3480   -0.9517   22.9208 H   0  0  0  0  0  0  0  0  0  0  0  0
 19 20  2  0
 19 18  1  0
 20 21  1  0
 17 18  2  0
 17 16  1  0
 18 24  1  0
 21 22  1  0
 21 23  2  0
 16 14  2  0
 24 23  1  0
 24 15  2  0
 14 15  1  0
 14 13  1  0
 12 13  1  0
 12 11  1  0
 11 10  1  0
 10  9  1  0
  6  9  2  0
  6  4  1  0
  9  8  1  0
  5  4  1  0
  4  3  2  0
  8  7  2  0
  3  7  1  0
  3  2  1  0
  2  1  3  0
  6 25  1  0
  7 26  1  0
  8 27  1  0
 10 28  1  0
 10 29  1  0
 11 30  1  0
 11 31  1  0
 12 32  1  0
 13 33  1  0
 13 34  1  0
 15 35  1  0
 16 36  1  0
 17 37  1  0
 19 38  1  0
 20 39  1  0
 22 40  1  0
 22 41  1  0
A    1
N28
A    2
C27
A    3
C24
A    4
C23
A    5
CL2
A    6
C22
A    7
C25
A    8
C26
A    9
C21
A   10
C14
A   11
C13
A   12
N12
A   13
C11
A   14
C08
A   15
C09
A   16
C07
A   17
C06
A   18
C05
A   19
C04
A   20
C03
A   21
C02
A   22
N02
A   23
N01
A   24
C10
M  END
