5ITO_6DB_A_304
     RDKit          3D

 35 34  0  0  0  0  0  0  0  0999 V2000
   21.2640   -4.8220   -3.1330 O   0  0  0  0  0  0  0  0  0  0  0  0
   20.2450   -5.4670   -2.7580 C   0  0  0  0  0  0  0  0  0  0  0  0
   20.0820   -6.9120   -3.1950 C   0  0  0  0  0  0  0  0  0  0  0  0
   20.7250   -7.7870   -2.1530 C   0  0  0  0  0  0  0  0  0  0  0  0
   18.6790   -7.2930   -3.4940 N   0  0  0  0  0  0  0  0  0  0  0  0
   17.8750   -6.3720   -4.3340 C   0  0  0  0  0  0  0  0  0  0  0  0
   16.5240   -6.9810   -4.6230 C   0  0  0  0  0  0  0  0  0  0  0  0
   15.5970   -6.3120   -5.1710 O   0  0  0  0  0  0  0  0  0  0  0  0
   16.3200   -8.1880   -4.3250 O   0  0  0  0  0  0  0  0  0  0  0  0
   18.5380   -5.9700   -5.6470 C   0  0  0  0  0  0  0  0  0  0  0  0
   18.9000   -7.1410   -6.5190 C   0  0  0  0  0  0  0  0  0  0  0  0
   19.5450   -6.8800   -7.8250 C   0  0  0  0  0  0  0  0  0  0  0  0
   20.1890   -8.0740   -8.3210 N   0  0  0  0  0  0  0  0  0  0  0  0
   20.9090   -8.0820   -9.5540 C   0  0  0  0  0  0  0  0  0  0  0  0
   21.0150   -7.0200  -10.2750 N   0  0  0  0  0  0  0  0  0  0  0  0
   21.4870   -9.2040   -9.9140 N   0  0  0  0  0  0  0  0  0  0  0  0
   19.3670   -4.9590   -2.0160 O   0  0  0  0  0  0  0  0  0  0  0  0
   20.5909   -7.0527   -4.1600 H   0  0  0  0  0  0  0  0  0  0  0  0
   20.4564   -7.4216   -1.1508 H   0  0  0  0  0  0  0  0  0  0  0  0
   20.3705   -8.8214   -2.2733 H   0  0  0  0  0  0  0  0  0  0  0  0
   21.8180   -7.7577   -2.2733 H   0  0  0  0  0  0  0  0  0  0  0  0
   18.7040   -8.2038   -3.9744 H   0  0  0  0  0  0  0  0  0  0  0  0
   17.7755   -5.4490   -3.7440 H   0  0  0  0  0  0  0  0  0  0  0  0
   16.2736   -8.4623   -3.3749 H   0  0  0  0  0  0  0  0  0  0  0  0
   17.8443   -5.3226   -6.2035 H   0  0  0  0  0  0  0  0  0  0  0  0
   19.4755   -5.4544   -5.3917 H   0  0  0  0  0  0  0  0  0  0  0  0
   19.5862   -7.7764   -5.9399 H   0  0  0  0  0  0  0  0  0  0  0  0
   17.9302   -7.5876   -6.7838 H   0  0  0  0  0  0  0  0  0  0  0  0
   18.7814   -6.5546   -8.5468 H   0  0  0  0  0  0  0  0  0  0  0  0
   20.3045   -6.0950   -7.6951 H   0  0  0  0  0  0  0  0  0  0  0  0
   20.1272   -8.9425   -7.7708 H   0  0  0  0  0  0  0  0  0  0  0  0
   21.5394   -7.0493  -11.1611 H   0  0  0  0  0  0  0  0  0  0  0  0
   21.8259   -9.8618   -9.1975 H   0  0  0  0  0  0  0  0  0  0  0  0
   21.6018   -9.4268  -10.9131 H   0  0  0  0  0  0  0  0  0  0  0  0
   19.4593   -5.0124   -1.0318 H   0  0  0  0  0  0  0  0  0  0  0  0
  1  2  2  0
  4  3  1  0
  2 17  1  0
  2  3  1  0
  3  5  1  0
  5  6  1  0
  8  7  2  0
  6  7  1  0
  6 10  1  0
  7  9  1  0
 10 11  1  0
 11 12  1  0
 12 13  1  0
 13 14  1  0
 14 15  2  3
 14 16  1  0
  3 18  1  0
  4 19  1  0
  4 20  1  0
  4 21  1  0
  5 22  1  0
  6 23  1  0
  9 24  1  0
 10 25  1  0
 10 26  1  0
 11 27  1  0
 11 28  1  0
 12 29  1  0
 12 30  1  0
 13 31  1  0
 15 32  1  0
 16 33  1  0
 16 34  1  0
 17 35  1  0
A    1
O
A    2
C
A    3
CA
A    4
CB
A    5
N
A    6
CAI
A    7
CAE
A    8
OAB
A    9
OAF
A   10
CAK
A   11
CAL
A   12
CAM
A   13
NAN
A   14
CAP
A   15
NAO
A   16
NAQ
A   17
OXT
M  END
