5VUQ_P94_A_803
     RDKit          3D

 41 43  0  0  0  0  0  0  0  0999 V2000
   -0.1950    2.2890   28.8420 N   0  0  0  0  0  0  0  0  0  0  0  0
    0.8880    2.6270   28.6120 C   0  0  0  0  0  0  0  0  0  0  0  0
    4.6980    3.7250   27.7690 C   0  0  0  0  0  0  0  0  0  0  0  0
    3.6530    4.5990   27.4770 C   0  0  0  0  0  0  0  0  0  0  0  0
    2.3440    4.2290   27.7680 C   0  0  0  0  0  0  0  0  0  0  0  0
    2.0930    2.9860   28.3430 C   0  0  0  0  0  0  0  0  0  0  0  0
    3.1460    2.1190   28.6250 C   0  0  0  0  0  0  0  0  0  0  0  0
    4.4520    2.4850   28.3340 C   0  0  0  0  0  0  0  0  0  0  0  0
    6.1200    4.0960   27.4530 C   0  0  0  0  0  0  0  0  0  0  0  0
    6.6660    3.0690   26.4690 C   0  0  0  0  0  0  0  0  0  0  0  0
    7.9760    3.4800   25.9470 N   0  0  0  0  0  0  0  0  0  0  0  0
    8.4600    2.3490   25.1420 C   0  0  0  0  0  0  0  0  0  0  0  0
   12.0270    1.5050   24.1760 C   0  0  0  0  0  0  0  0  0  0  0  0
   10.7260    1.4150   24.6680 C   0  0  0  0  0  0  0  0  0  0  0  0
    9.8640    2.5100   24.5900 C   0  0  0  0  0  0  0  0  0  0  0  0
   10.3130    3.7110   24.0260 C   0  0  0  0  0  0  0  0  0  0  0  0
   11.6140    3.7990   23.5110 C   0  0  0  0  0  0  0  0  0  0  0  0
   12.4680    2.6930   23.5840 C   0  0  0  0  0  0  0  0  0  0  0  0
   13.7660    2.7640   23.0700 C   0  0  0  0  0  0  0  0  0  0  0  0
   14.5820    1.6380   23.1610 C   0  0  0  0  0  0  0  0  0  0  0  0
   14.1120    0.4750   23.7740 C   0  0  0  0  0  0  0  0  0  0  0  0
   14.9110   -0.6210   23.8730 N   0  0  0  0  0  0  0  0  0  0  0  0
   12.8460    0.4230   24.2550 N   0  0  0  0  0  0  0  0  0  0  0  0
    3.8620    5.5768   27.0186 H   0  0  0  0  0  0  0  0  0  0  0  0
    1.5126    4.9140   27.5453 H   0  0  0  0  0  0  0  0  0  0  0  0
    2.9409    1.1391   29.0808 H   0  0  0  0  0  0  0  0  0  0  0  0
    5.2832    1.7976   28.5498 H   0  0  0  0  0  0  0  0  0  0  0  0
    6.1530    5.0990   27.0027 H   0  0  0  0  0  0  0  0  0  0  0  0
    6.7258    4.1058   28.3711 H   0  0  0  0  0  0  0  0  0  0  0  0
    6.7711    2.1013   26.9813 H   0  0  0  0  0  0  0  0  0  0  0  0
    5.9646    2.9863   25.6257 H   0  0  0  0  0  0  0  0  0  0  0  0
    7.8805    4.3220   25.3615 H   0  0  0  0  0  0  0  0  0  0  0  0
    8.4427    1.4484   25.7734 H   0  0  0  0  0  0  0  0  0  0  0  0
    7.7923    2.2837   24.2703 H   0  0  0  0  0  0  0  0  0  0  0  0
   10.3765    0.4753   25.1205 H   0  0  0  0  0  0  0  0  0  0  0  0
    9.6454    4.5844   23.9872 H   0  0  0  0  0  0  0  0  0  0  0  0
   11.9626    4.7353   23.0507 H   0  0  0  0  0  0  0  0  0  0  0  0
   14.1355    3.6891   22.6035 H   0  0  0  0  0  0  0  0  0  0  0  0
   15.6011    1.6656   22.7479 H   0  0  0  0  0  0  0  0  0  0  0  0
   15.1753   -0.9836   24.8001 H   0  0  0  0  0  0  0  0  0  0  0  0
   15.2518   -1.0885   23.0209 H   0  0  0  0  0  0  0  0  0  0  0  0
  1  2  3  0
  2  6  1  0
  7  6  2  0
  7  8  1  0
  6  5  1  0
  8  3  2  0
  5  4  2  0
  3  4  1  0
  3  9  1  0
  9 10  1  0
 10 11  1  0
 11 12  1  0
 12 15  1  0
 14 15  2  0
 14 13  1  0
 15 16  1  0
 23 13  2  0
 23 21  1  0
 13 18  1  0
 16 17  2  0
 22 21  1  0
 21 20  2  0
 18 17  1  0
 18 19  2  0
 20 19  1  0
  4 24  1  0
  5 25  1  0
  7 26  1  0
  8 27  1  0
  9 28  1  0
  9 29  1  0
 10 30  1  0
 10 31  1  0
 11 32  1  0
 12 33  1  0
 12 34  1  0
 14 35  1  0
 16 36  1  0
 17 37  1  0
 19 38  1  0
 20 39  1  0
 22 40  1  0
 22 41  1  0
A    1
N28
A    2
C27
A    3
C21
A    4
C22
A    5
C23
A    6
C24
A    7
C25
A    8
C26
A    9
C14
A   10
C13
A   11
N12
A   12
C11
A   13
C10
A   14
C09
A   15
C08
A   16
C07
A   17
C06
A   18
C05
A   19
C04
A   20
C03
A   21
C02
A   22
N02
A   23
N01
M  END
