3VBI_0FX_A_1500
     RDKit          3D

 62 64  0  0  0  0  0  0  0  0999 V2000
  -46.6090    1.8900   26.6640 O   0  0  0  0  0  0  0  0  0  0  0  0
  -45.6030    0.8270   26.2650 P   0  0  0  0  0  0  0  0  0  0  0  0
  -45.2020   -0.2520   27.2500 O   0  0  0  0  0  0  0  0  0  0  0  0
  -44.2110    1.5080   25.7720 O   0  0  0  0  0  0  0  0  0  0  0  0
  -44.1490    2.4620   24.7020 C   0  0  0  0  0  0  0  0  0  0  0  0
  -42.8210    2.8090   24.0280 C   0  0  0  0  0  0  0  0  0  0  0  0
  -41.9900    1.6900   23.7070 O   0  0  0  0  0  0  0  0  0  0  0  0
  -42.1350    3.8030   24.9660 C   0  0  0  0  0  0  0  0  0  0  0  0
  -40.8650    4.2940   24.5070 O   0  0  0  0  0  0  0  0  0  0  0  0
  -43.0230    5.0310   25.1660 C   0  0  0  0  0  0  0  0  0  0  0  0
  -42.3380    5.9860   26.0280 N   0  0  0  0  0  0  0  0  0  0  0  0
  -44.4280    4.6380   25.6520 C   0  0  0  0  0  0  0  0  0  0  0  0
  -45.3680    5.8250   25.8940 C   0  0  0  0  0  0  0  0  0  0  0  0
  -44.9730    3.6350   24.7760 O   0  0  0  0  0  0  0  0  0  0  0  0
  -46.2300    0.0160   25.0260 O   0  0  0  0  0  0  0  0  0  0  0  0
  -45.4030   -1.0500   24.1540 P   0  0  0  0  0  0  0  0  0  0  0  0
  -43.9700   -0.6100   23.9380 O   0  0  0  0  0  0  0  0  0  0  0  0
  -46.2990   -1.2210   22.9480 O   0  0  0  0  0  0  0  0  0  0  0  0
  -45.4190   -2.4750   24.9200 O   0  0  0  0  0  0  0  0  0  0  0  0
  -46.6210   -3.1240   25.3300 C   0  0  0  0  0  0  0  0  0  0  0  0
  -46.3380   -4.6050   25.5630 C   0  0  0  0  0  0  0  0  0  0  0  0
  -45.8650   -5.2460   24.3760 O   0  0  0  0  0  0  0  0  0  0  0  0
  -45.2310   -4.8680   26.5800 C   0  0  0  0  0  0  0  0  0  0  0  0
  -45.6920   -4.8400   27.9350 O   0  0  0  0  0  0  0  0  0  0  0  0
  -44.6770   -6.2210   26.1440 C   0  0  0  0  0  0  0  0  0  0  0  0
  -44.8470   -6.2220   24.6270 C   0  0  0  0  0  0  0  0  0  0  0  0
  -43.5770   -5.8450   23.9770 N   0  0  0  0  0  0  0  0  0  0  0  0
  -43.4260   -4.6520   23.3560 C   0  0  0  0  0  0  0  0  0  0  0  0
  -42.2310   -4.2610   22.7380 C   0  0  0  0  0  0  0  0  0  0  0  0
  -42.0940   -2.9190   22.0410 C   0  0  0  0  0  0  0  0  0  0  0  0
  -42.5360   -6.6950   24.0000 C   0  0  0  0  0  0  0  0  0  0  0  0
  -42.6510   -7.8060   24.5720 O   0  0  0  0  0  0  0  0  0  0  0  0
  -41.3560   -6.3590   23.4200 N   0  0  0  0  0  0  0  0  0  0  0  0
  -41.1740   -5.1690   22.7860 C   0  0  0  0  0  0  0  0  0  0  0  0
  -40.0760   -4.9150   22.2400 O   0  0  0  0  0  0  0  0  0  0  0  0
  -46.6591    1.9429   27.6513 H   0  0  0  0  0  0  0  0  0  0  0  0
  -44.6271    1.7402   24.0235 H   0  0  0  0  0  0  0  0  0  0  0  0
  -43.0140    3.2393   23.0342 H   0  0  0  0  0  0  0  0  0  0  0  0
  -41.6734    1.2637   24.5425 H   0  0  0  0  0  0  0  0  0  0  0  0
  -41.9670    3.2320   25.8910 H   0  0  0  0  0  0  0  0  0  0  0  0
  -40.2952    4.5143   25.2861 H   0  0  0  0  0  0  0  0  0  0  0  0
  -43.1934    5.5322   24.2018 H   0  0  0  0  0  0  0  0  0  0  0  0
  -42.5114    5.7443   27.0141 H   0  0  0  0  0  0  0  0  0  0  0  0
  -41.3259    5.9541   25.8395 H   0  0  0  0  0  0  0  0  0  0  0  0
  -44.3256    4.2022   26.6568 H   0  0  0  0  0  0  0  0  0  0  0  0
  -45.4912    5.9805   26.9760 H   0  0  0  0  0  0  0  0  0  0  0  0
  -44.9395    6.7306   25.4398 H   0  0  0  0  0  0  0  0  0  0  0  0
  -46.3477    5.6154   25.4398 H   0  0  0  0  0  0  0  0  0  0  0  0
  -43.5305   -0.4751   24.8148 H   0  0  0  0  0  0  0  0  0  0  0  0
  -46.9855   -2.6681   26.2624 H   0  0  0  0  0  0  0  0  0  0  0  0
  -47.3860   -3.0129   24.5475 H   0  0  0  0  0  0  0  0  0  0  0  0
  -47.3051   -4.9937   25.9147 H   0  0  0  0  0  0  0  0  0  0  0  0
  -44.4592   -4.0842   26.5864 H   0  0  0  0  0  0  0  0  0  0  0  0
  -44.9164   -4.8871   28.5485 H   0  0  0  0  0  0  0  0  0  0  0  0
  -43.6158   -6.3150   26.4180 H   0  0  0  0  0  0  0  0  0  0  0  0
  -45.1930   -7.0638   26.6271 H   0  0  0  0  0  0  0  0  0  0  0  0
  -45.1223   -7.2097   24.2287 H   0  0  0  0  0  0  0  0  0  0  0  0
  -44.2796   -3.9585   23.3356 H   0  0  0  0  0  0  0  0  0  0  0  0
  -42.0126   -2.1213   22.7941 H   0  0  0  0  0  0  0  0  0  0  0  0
  -41.1916   -2.9229   21.4120 H   0  0  0  0  0  0  0  0  0  0  0  0
  -42.9786   -2.7405   21.4120 H   0  0  0  0  0  0  0  0  0  0  0  0
  -40.5727   -7.0266   23.4611 H   0  0  0  0  0  0  0  0  0  0  0  0
  9  8  1  0
 11 10  1  0
  8 10  1  0
  8  6  1  0
 10 12  1  0
  7  6  1  0
 35 34  2  0
  6  5  1  0
 12 13  1  0
 12 14  1  0
 34 33  1  0
 34 29  1  0
  4  5  1  0
  4  2  1  0
 33 31  1  0
  5 14  1  0
  3  2  2  0
 30 29  1  0
 29 28  2  0
 31 32  2  0
 31 27  1  0
 18 16  2  0
  2  1  1  0
  2 15  1  0
 24 23  1  0
 28 27  1  0
 27 26  1  0
 23 25  1  0
 23 21  1  0
 25 26  1  0
 19 16  1  0
 19 20  1  0
 16 15  1  0
 16 17  1  0
 26 22  1  0
 21 20  1  0
 21 22  1  0
  1 36  1  0
  5 37  1  0
  6 38  1  0
  7 39  1  0
  8 40  1  0
  9 41  1  0
 10 42  1  0
 11 43  1  0
 11 44  1  0
 12 45  1  0
 13 46  1  0
 13 47  1  0
 13 48  1  0
 17 49  1  0
 20 50  1  0
 20 51  1  0
 21 52  1  0
 23 53  1  0
 24 54  1  0
 25 55  1  0
 25 56  1  0
 26 57  1  0
 28 58  1  0
 30 59  1  0
 30 60  1  0
 30 61  1  0
 33 62  1  0
A    1
O4P
A    2
P2
A    3
O3P
A    4
O1G
A    5
C1G
A    6
C2G
A    7
O2G
A    8
C3G
A    9
O3G
A   10
C4G
A   11
N4A
A   12
C5G
A   13
C6G
A   14
O5G
A   15
OPP
A   16
P
A   17
O1P
A   18
O2P
A   19
O5
A   20
C5
A   21
C4
A   22
O4
A   23
C3
A   24
O3
A   25
C2
A   26
C1
A   27
N11
A   28
C61
A   29
C51
A   30
C5A
A   31
C21
A   32
O21
A   33
N31
A   34
C41
A   35
O41
M  END
