5W2E_9VY_A_601
     RDKit          3D

 68 74  0  0  0  0  0  0  0  0999 V2000
   -6.9510   -7.8140   11.8850 N   0  0  0  0  0  0  0  0  0  0  0  0
   -3.4750  -13.4100   15.8780 N   0  0  0  0  0  0  0  0  0  0  0  0
   -5.3250  -10.6680   13.3080 C   0  0  0  0  0  0  0  0  0  0  0  0
   -6.2220  -10.0360   12.4410 C   0  0  0  0  0  0  0  0  0  0  0  0
   -6.5590  -10.6350   11.2130 C   0  0  0  0  0  0  0  0  0  0  0  0
   -6.6520  -10.7030    7.6670 C   0  0  0  0  0  0  0  0  0  0  0  0
   -8.8930  -10.1630   10.5000 C   0  0  0  0  0  0  0  0  0  0  0  0
   -6.8010   -8.7350   12.8530 C   0  0  0  0  0  0  0  0  0  0  0  0
   -8.2600   -3.4990   10.4950 C   0  0  0  0  0  0  0  0  0  0  0  0
   -7.4020   -5.5350    9.8520 C   0  0  0  0  0  0  0  0  0  0  0  0
   -8.2530   -2.2800    8.0140 C   0  0  0  0  0  0  0  0  0  0  0  0
   -8.5220   -3.9860   12.9960 C   0  0  0  0  0  0  0  0  0  0  0  0
   -7.8270   -6.2770   13.5270 C   0  0  0  0  0  0  0  0  0  0  0  0
   -7.6680   -7.2460   14.5070 C   0  0  0  0  0  0  0  0  0  0  0  0
   -2.8860  -15.0680   12.5380 C   0  0  0  0  0  0  0  0  0  0  0  0
   -1.1550  -16.5080   13.3940 C   0  0  0  0  0  0  0  0  0  0  0  0
   -2.2510  -17.0610   11.3400 C   0  0  0  0  0  0  0  0  0  0  0  0
   -2.4440  -11.5960   15.0350 O   0  0  0  0  0  0  0  0  0  0  0  0
   -3.1940  -12.5690   14.8870 C   0  0  0  0  0  0  0  0  0  0  0  0
   -2.7210  -13.4060   17.1190 C   0  0  0  0  0  0  0  0  0  0  0  0
   -3.8330  -12.8350   13.5270 C   0  0  0  0  0  0  0  0  0  0  0  0
   -4.7780  -11.8940   12.9340 C   0  0  0  0  0  0  0  0  0  0  0  0
   -7.4510  -10.0860   10.2270 N   0  0  0  0  0  0  0  0  0  0  0  0
   -6.7000   -9.3970    8.8310 S   0  0  0  0  0  0  0  0  0  0  0  0
   -5.3690   -9.0390    9.1930 O   0  0  0  0  0  0  0  0  0  0  0  0
   -7.5660   -8.3770    8.3470 O   0  0  0  0  0  0  0  0  0  0  0  0
   -6.0200  -11.8620   10.8370 C   0  0  0  0  0  0  0  0  0  0  0  0
   -5.1430  -12.4520   11.7170 C   0  0  0  0  0  0  0  0  0  0  0  0
   -4.5080  -13.6510   11.5210 O   0  0  0  0  0  0  0  0  0  0  0  0
   -3.7110  -13.8620   12.6320 C   0  0  0  0  0  0  0  0  0  0  0  0
   -3.0300  -15.9290   11.4560 C   0  0  0  0  0  0  0  0  0  0  0  0
   -1.3370  -17.3150   12.3120 C   0  0  0  0  0  0  0  0  0  0  0  0
   -0.5740  -18.4160   12.1970 F   0  0  0  0  0  0  0  0  0  0  0  0
   -1.9380  -15.3740   13.5080 C   0  0  0  0  0  0  0  0  0  0  0  0
   -7.1540   -8.4830   14.1710 C   0  0  0  0  0  0  0  0  0  0  0  0
   -7.4520   -6.6060   12.1940 C   0  0  0  0  0  0  0  0  0  0  0  0
   -8.4120   -5.1070   13.9380 O   0  0  0  0  0  0  0  0  0  0  0  0
   -8.1630   -4.3290   11.6080 N   0  0  0  0  0  0  0  0  0  0  0  0
   -8.7150   -2.1890   10.3790 C   0  0  0  0  0  0  0  0  0  0  0  0
   -8.7060   -1.5880    9.1290 C   0  0  0  0  0  0  0  0  0  0  0  0
   -7.8110   -3.5750    8.1740 C   0  0  0  0  0  0  0  0  0  0  0  0
   -7.3720   -4.2560    7.0900 F   0  0  0  0  0  0  0  0  0  0  0  0
   -7.7940   -4.2330    9.4040 C   0  0  0  0  0  0  0  0  0  0  0  0
   -7.6320   -5.5860   11.1810 C   0  0  0  0  0  0  0  0  0  0  0  0
   -4.2474  -14.0815   15.7624 H   0  0  0  0  0  0  0  0  0  0  0  0
   -5.0558  -10.2052   14.2689 H   0  0  0  0  0  0  0  0  0  0  0  0
   -6.6166  -11.6659    8.1976 H   0  0  0  0  0  0  0  0  0  0  0  0
   -7.5521  -10.6650    7.0359 H   0  0  0  0  0  0  0  0  0  0  0  0
   -5.7571  -10.5990    7.0359 H   0  0  0  0  0  0  0  0  0  0  0  0
   -9.0604  -10.1719   11.5872 H   0  0  0  0  0  0  0  0  0  0  0  0
   -9.3969   -9.2905   10.0586 H   0  0  0  0  0  0  0  0  0  0  0  0
   -9.3011  -11.0842   10.0586 H   0  0  0  0  0  0  0  0  0  0  0  0
   -6.9902   -6.3430    9.2294 H   0  0  0  0  0  0  0  0  0  0  0  0
   -8.2471   -1.8038    7.0225 H   0  0  0  0  0  0  0  0  0  0  0  0
   -7.8538   -3.1814   13.3369 H   0  0  0  0  0  0  0  0  0  0  0  0
   -9.5796   -3.6837   12.9847 H   0  0  0  0  0  0  0  0  0  0  0  0
   -7.9503   -7.0298   15.5479 H   0  0  0  0  0  0  0  0  0  0  0  0
   -0.4032  -16.7525   14.1588 H   0  0  0  0  0  0  0  0  0  0  0  0
   -2.3668  -17.7404   10.4827 H   0  0  0  0  0  0  0  0  0  0  0  0
   -3.4169  -13.4097   17.9709 H   0  0  0  0  0  0  0  0  0  0  0  0
   -2.0827  -14.3008   17.1631 H   0  0  0  0  0  0  0  0  0  0  0  0
   -2.0922  -12.5045   17.1631 H   0  0  0  0  0  0  0  0  0  0  0  0
   -6.2832  -12.3376    9.8807 H   0  0  0  0  0  0  0  0  0  0  0  0
   -3.7769  -15.7038   10.6804 H   0  0  0  0  0  0  0  0  0  0  0  0
   -1.8097  -14.7079   14.3740 H   0  0  0  0  0  0  0  0  0  0  0  0
   -7.0259   -9.2596   14.9394 H   0  0  0  0  0  0  0  0  0  0  0  0
   -9.0750   -1.6405   11.2619 H   0  0  0  0  0  0  0  0  0  0  0  0
   -9.0614   -0.5527    9.0200 H   0  0  0  0  0  0  0  0  0  0  0  0
 42 41  1  0
  6 24  1  0
 11 41  1  0
 11 40  2  0
 41 43  2  0
 26 24  2  0
 24 25  2  0
 24 23  1  0
 40 39  1  0
 43 10  1  0
 43  9  1  0
 10 44  2  0
 23  7  1  0
 23  5  1  0
 39  9  2  0
  9 38  1  0
 27  5  2  0
 27 28  1  0
 44 38  1  0
 44 36  1  0
  5  4  1  0
 17 31  2  0
 17 32  1  0
 31 15  1  0
 29 28  1  0
 29 30  1  0
 38 12  1  0
 28 22  2  0
  1 36  2  0
  1  8  1  0
 33 32  1  0
 36 13  1  0
 32 16  2  0
  4  8  1  0
  4  3  2  0
 15 30  1  0
 15 34  2  0
 30 21  2  0
  8 35  2  0
 22  3  1  0
 22 21  1  0
 12 37  1  0
 16 34  1  0
 13 37  1  0
 13 14  2  0
 21 19  1  0
 35 14  1  0
 19 18  2  0
 19  2  1  0
  2 20  1  0
  2 45  1  0
  3 46  1  0
  6 47  1  0
  6 48  1  0
  6 49  1  0
  7 50  1  0
  7 51  1  0
  7 52  1  0
 10 53  1  0
 11 54  1  0
 12 55  1  0
 12 56  1  0
 14 57  1  0
 16 58  1  0
 17 59  1  0
 20 60  1  0
 20 61  1  0
 20 62  1  0
 27 63  1  0
 31 64  1  0
 34 65  1  0
 35 66  1  0
 39 67  1  0
 40 68  1  0
A    1
N1
A    2
N3
A    3
C4
A    4
C5
A    5
C6
A    6
C7
A    7
C8
A    8
C10
A    9
C13
A   10
C15
A   11
C17
A   12
C20
A   13
C21
A   14
C22
A   15
C24
A   16
C26
A   17
C28
A   18
O4
A   19
C30
A   20
C31
A   21
C
A   22
C3
A   23
N
A   24
S
A   25
O2
A   26
O1
A   27
C9
A   28
C2
A   29
O
A   30
C1
A   31
C29
A   32
C27
A   33
F1
A   34
C25
A   35
C23
A   36
C11
A   37
O3
A   38
N2
A   39
C19
A   40
C18
A   41
C16
A   42
F
A   43
C14
A   44
C12
M  END
