5W4B_9W4_A_502
     RDKit          3D

 51 55  0  0  0  0  0  0  0  0999 V2000
   28.2460   94.5200  202.8880 N   0  0  0  0  0  0  0  0  0  0  0  0
   29.3850   95.3500  202.7880 C   0  0  0  0  0  0  0  0  0  0  0  0
   30.0640   95.8210  203.9300 C   0  0  0  0  0  0  0  0  0  0  0  0
   31.1640   96.6260  203.8320 C   0  0  0  0  0  0  0  0  0  0  0  0
   31.6400   97.0170  202.5560 C   0  0  0  0  0  0  0  0  0  0  0  0
   34.7630  100.6860  199.0770 C   0  0  0  0  0  0  0  0  0  0  0  0
   36.0960  100.1320  201.0530 C   0  0  0  0  0  0  0  0  0  0  0  0
   25.6190   93.2360  203.1480 C   0  0  0  0  0  0  0  0  0  0  0  0
   24.4540   92.4780  203.1360 C   0  0  0  0  0  0  0  0  0  0  0  0
   24.4130   91.2260  203.7590 C   0  0  0  0  0  0  0  0  0  0  0  0
   28.8570   93.3000  204.6840 O   0  0  0  0  0  0  0  0  0  0  0  0
   28.0290   93.5480  203.8220 C   0  0  0  0  0  0  0  0  0  0  0  0
   32.6950   97.8030  202.2670 N   0  0  0  0  0  0  0  0  0  0  0  0
   32.9670   98.0470  201.0260 C   0  0  0  0  0  0  0  0  0  0  0  0
   31.7960   97.2140  199.9970 S   0  0  0  0  0  0  0  0  0  0  0  0
   30.9650   96.5590  201.4070 C   0  0  0  0  0  0  0  0  0  0  0  0
   29.8390   95.7280  201.5240 C   0  0  0  0  0  0  0  0  0  0  0  0
   34.0220   98.8390  200.5670 N   0  0  0  0  0  0  0  0  0  0  0  0
   33.5620   99.9100  199.6470 C   0  0  0  0  0  0  0  0  0  0  0  0
   35.5990  101.1420  200.1550 O   0  0  0  0  0  0  0  0  0  0  0  0
   34.9200   99.3330  201.6460 C   0  0  0  0  0  0  0  0  0  0  0  0
   26.7710   92.7500  203.7970 C   0  0  0  0  0  0  0  0  0  0  0  0
   23.1550   90.3840  203.7500 C   0  0  0  0  0  0  0  0  0  0  0  0
   22.3970   90.5650  202.4940 N   0  0  0  0  0  0  0  0  0  0  0  0
   22.7590   90.0600  201.2870 C   0  0  0  0  0  0  0  0  0  0  0  0
   23.7290   89.3860  201.0150 O   0  0  0  0  0  0  0  0  0  0  0  0
   21.6880   90.5130  200.3150 C   0  0  0  0  0  0  0  0  0  0  0  0
   20.7570   91.2860  201.1510 N   0  0  0  0  0  0  0  0  0  0  0  0
   21.2500   91.2640  202.4030 C   0  0  0  0  0  0  0  0  0  0  0  0
   20.6990   91.8220  203.3380 O   0  0  0  0  0  0  0  0  0  0  0  0
   25.5480   90.7360  204.4040 C   0  0  0  0  0  0  0  0  0  0  0  0
   26.7200   91.4860  204.4250 C   0  0  0  0  0  0  0  0  0  0  0  0
   27.5055   94.6624  202.1863 H   0  0  0  0  0  0  0  0  0  0  0  0
   29.6987   95.5329  204.9268 H   0  0  0  0  0  0  0  0  0  0  0  0
   31.6786   96.9696  204.7415 H   0  0  0  0  0  0  0  0  0  0  0  0
   35.3448  100.0263  198.4165 H   0  0  0  0  0  0  0  0  0  0  0  0
   34.3996  101.5525  198.5051 H   0  0  0  0  0  0  0  0  0  0  0  0
   36.7600   99.4493  200.5025 H   0  0  0  0  0  0  0  0  0  0  0  0
   36.6534  100.6154  201.8689 H   0  0  0  0  0  0  0  0  0  0  0  0
   25.6415   94.2166  202.6501 H   0  0  0  0  0  0  0  0  0  0  0  0
   23.5564   92.8659  202.6322 H   0  0  0  0  0  0  0  0  0  0  0  0
   29.3167   95.3763  200.6221 H   0  0  0  0  0  0  0  0  0  0  0  0
   32.9108  100.6048  200.1976 H   0  0  0  0  0  0  0  0  0  0  0  0
   33.0092   99.4499  198.8147 H   0  0  0  0  0  0  0  0  0  0  0  0
   34.3468   99.9832  202.3233 H   0  0  0  0  0  0  0  0  0  0  0  0
   35.3213   98.4686  202.1953 H   0  0  0  0  0  0  0  0  0  0  0  0
   22.5197   90.6798  204.5978 H   0  0  0  0  0  0  0  0  0  0  0  0
   23.4446   89.3259  203.8315 H   0  0  0  0  0  0  0  0  0  0  0  0
   21.6223   90.3108  199.2357 H   0  0  0  0  0  0  0  0  0  0  0  0
   25.5168   89.7535  204.8978 H   0  0  0  0  0  0  0  0  0  0  0  0
   27.6121   91.0920  204.9338 H   0  0  0  0  0  0  0  0  0  0  0  0
  6 19  1  0
  6 20  1  0
 19 18  1  0
 15 14  1  0
 15 16  1  0
 20  7  1  0
 27 28  2  0
 27 25  1  0
 18 14  1  0
 18 21  1  0
 26 25  2  0
 14 13  2  0
  7 21  1  0
 28 29  1  0
 25 24  1  0
 16 17  2  0
 16  5  1  0
 17  2  1  0
 13  5  1  0
 29 24  1  0
 29 30  2  0
 24 23  1  0
  5  4  2  0
  2  1  1  0
  2  3  2  0
  1 12  1  0
  9  8  2  0
  9 10  1  0
  8 22  1  0
 23 10  1  0
 10 31  2  0
 22 12  1  0
 22 32  2  0
 12 11  2  0
  4  3  1  0
 31 32  1  0
  1 33  1  0
  3 34  1  0
  4 35  1  0
  6 36  1  0
  6 37  1  0
  7 38  1  0
  7 39  1  0
  8 40  1  0
  9 41  1  0
 17 42  1  0
 19 43  1  0
 19 44  1  0
 21 45  1  0
 21 46  1  0
 23 47  1  0
 23 48  1  0
 27 49  1  0
 31 50  1  0
 32 51  1  0
A    1
N3
A    2
C4
A    3
C5
A    4
C6
A    5
C7
A    6
C15
A    7
C17
A    8
C20
A    9
C21
A   10
C22
A   11
O1
A   12
C2
A   13
N8
A   14
C9
A   15
S10
A   16
C11
A   17
C12
A   18
N13
A   19
C14
A   20
O16
A   21
C18
A   22
C19
A   23
C23
A   24
N24
A   25
C25
A   26
O26
A   27
C27
A   28
N28
A   29
C29
A   30
O30
A   31
C31
A   32
C32
M  END
