5W4W_9WG_A_4001
     RDKit          3D

 39 42  0  0  0  0  0  0  0  0999 V2000
   51.3930   92.6500  117.7890 C   0  0  0  0  0  0  0  0  0  0  0  0
   52.4630   93.4170  116.0500 N   0  0  0  0  0  0  0  0  0  0  0  0
   49.0620   93.5820  116.9720 C   0  0  0  0  0  0  0  0  0  0  0  0
   47.1090   94.2330  118.2480 C   0  0  0  0  0  0  0  0  0  0  0  0
   53.1040   92.9190  120.5290 C   0  0  0  0  0  0  0  0  0  0  0  0
   48.4670   93.9580  118.1770 C   0  0  0  0  0  0  0  0  0  0  0  0
   51.6180   91.2410  121.3260 C   0  0  0  0  0  0  0  0  0  0  0  0
   49.7150   90.4430  120.3060 C   0  0  0  0  0  0  0  0  0  0  0  0
   51.9360   92.0480  120.1930 C   0  0  0  0  0  0  0  0  0  0  0  0
   53.4840   93.7610  115.0690 C   0  0  0  0  0  0  0  0  0  0  0  0
   52.6280   92.7470  117.1970 C   0  0  0  0  0  0  0  0  0  0  0  0
   50.5160   93.3200  116.8850 C   0  0  0  0  0  0  0  0  0  0  0  0
   51.1750   93.7800  115.8250 N   0  0  0  0  0  0  0  0  0  0  0  0
   46.3620   94.1040  117.1050 C   0  0  0  0  0  0  0  0  0  0  0  0
   46.9040   93.7490  115.8930 C   0  0  0  0  0  0  0  0  0  0  0  0
   48.2620   93.4840  115.8340 C   0  0  0  0  0  0  0  0  0  0  0  0
   45.0130   94.2620  117.1920 F   0  0  0  0  0  0  0  0  0  0  0  0
   51.0800   91.9640  119.0720 C   0  0  0  0  0  0  0  0  0  0  0  0
   49.9480   91.1530  119.1450 C   0  0  0  0  0  0  0  0  0  0  0  0
   50.5250   90.4640  121.3770 N   0  0  0  0  0  0  0  0  0  0  0  0
   53.5810   93.8380  119.8860 O   0  0  0  0  0  0  0  0  0  0  0  0
   53.5310   92.5170  121.7620 N   0  0  0  0  0  0  0  0  0  0  0  0
   52.7150   91.4410  122.3190 C   0  0  0  0  0  0  0  0  0  0  0  0
   54.6850   93.0630  122.4630 C   0  0  0  0  0  0  0  0  0  0  0  0
   46.6443   94.5458  119.1947 H   0  0  0  0  0  0  0  0  0  0  0  0
   49.0840   94.0375  119.0842 H   0  0  0  0  0  0  0  0  0  0  0  0
   48.8091   89.8211  120.3569 H   0  0  0  0  0  0  0  0  0  0  0  0
   54.4026   94.0705  115.5890 H   0  0  0  0  0  0  0  0  0  0  0  0
   53.6969   92.8850  114.4387 H   0  0  0  0  0  0  0  0  0  0  0  0
   53.1233   94.5872  114.4387 H   0  0  0  0  0  0  0  0  0  0  0  0
   53.5748   92.3491  117.5911 H   0  0  0  0  0  0  0  0  0  0  0  0
   46.2755   93.6772  114.9931 H   0  0  0  0  0  0  0  0  0  0  0  0
   48.7162   93.1920  114.8756 H   0  0  0  0  0  0  0  0  0  0  0  0
   49.2543   91.0803  118.2944 H   0  0  0  0  0  0  0  0  0  0  0  0
   52.3041   91.7327  123.2968 H   0  0  0  0  0  0  0  0  0  0  0  0
   53.2968   90.5224  122.4856 H   0  0  0  0  0  0  0  0  0  0  0  0
   54.5243   92.9870  123.5485 H   0  0  0  0  0  0  0  0  0  0  0  0
   55.5853   92.4953  122.1849 H   0  0  0  0  0  0  0  0  0  0  0  0
   54.8170   94.1191  122.1849 H   0  0  0  0  0  0  0  0  0  0  0  0
 10  2  1  0
 13  2  1  0
 13 12  2  0
 16 15  2  0
 16  3  1  0
 15 14  1  0
  2 11  1  0
 12  3  1  0
 12  1  1  0
  3  6  2  0
 14 17  1  0
 14  4  2  0
 11  1  2  0
  1 18  1  0
  6  4  1  0
 18 19  1  0
 18  9  2  0
 19  8  2  0
 21  5  2  0
  9  5  1  0
  9  7  1  0
  8 20  1  0
  5 22  1  0
  7 20  2  0
  7 23  1  0
 22 23  1  0
 22 24  1  0
  4 25  1  0
  6 26  1  0
  8 27  1  0
 10 28  1  0
 10 29  1  0
 10 30  1  0
 11 31  1  0
 15 32  1  0
 16 33  1  0
 19 34  1  0
 23 35  1  0
 23 36  1  0
 24 37  1  0
 24 38  1  0
 24 39  1  0
A    1
C4
A    2
N2
A    3
C7
A    4
C9
A    5
C20
A    6
C8
A    7
C18
A    8
C16
A    9
C19
A   10
C1
A   11
C3
A   12
C5
A   13
N6
A   14
C10
A   15
C11
A   16
C12
A   17
F13
A   18
C14
A   19
C15
A   20
N17
A   21
O21
A   22
N22
A   23
C23
A   24
C24
M  END
