5W5O_9XA_A_401
     RDKit          3D

 65 68  0  0  0  0  0  0  0  0999 V2000
    1.9150   15.1330   93.4610 C   0  0  0  0  0  0  0  0  0  0  0  0
    0.8090   14.2390   93.0800 C   0  0  0  0  0  0  0  0  0  0  0  0
   -1.4710   12.6140   92.4370 C   0  0  0  0  0  0  0  0  0  0  0  0
   -2.7200   12.5340   91.5190 C   0  0  0  0  0  0  0  0  0  0  0  0
    3.1950   18.2200   94.8570 C   0  0  0  0  0  0  0  0  0  0  0  0
   -4.7050   13.4110   93.0210 C   0  0  0  0  0  0  0  0  0  0  0  0
   -5.8020   14.1820   92.2290 C   0  0  0  0  0  0  0  0  0  0  0  0
   -6.1580   12.1070   90.8440 C   0  0  0  0  0  0  0  0  0  0  0  0
   -4.9750   11.3830   91.5570 C   0  0  0  0  0  0  0  0  0  0  0  0
    2.4720   18.6790   95.9710 C   0  0  0  0  0  0  0  0  0  0  0  0
    2.8350   19.8840   96.5920 C   0  0  0  0  0  0  0  0  0  0  0  0
    4.6410   20.1690   95.0370 C   0  0  0  0  0  0  0  0  0  0  0  0
    4.2920   18.9650   94.4050 C   0  0  0  0  0  0  0  0  0  0  0  0
   -8.0640   13.7040   91.2490 C   0  0  0  0  0  0  0  0  0  0  0  0
    1.7180   16.3040   93.9960 N   0  0  0  0  0  0  0  0  0  0  0  0
   -0.4430   14.6900   93.2930 C   0  0  0  0  0  0  0  0  0  0  0  0
   -0.5970   16.0810   93.8640 C   0  0  0  0  0  0  0  0  0  0  0  0
    0.5120   16.7960   94.1690 C   0  0  0  0  0  0  0  0  0  0  0  0
    2.8930   16.8830   94.2150 C   0  0  0  0  0  0  0  0  0  0  0  0
    3.8880   16.0260   93.8840 C   0  0  0  0  0  0  0  0  0  0  0  0
    3.1410   14.9160   93.3590 N   0  0  0  0  0  0  0  0  0  0  0  0
   -1.5290   13.9500   92.9830 O   0  0  0  0  0  0  0  0  0  0  0  0
   -4.0340   12.3280   92.2200 N   0  0  0  0  0  0  0  0  0  0  0  0
   -6.7600   13.1640   91.7110 N   0  0  0  0  0  0  0  0  0  0  0  0
    3.9080   20.5820   96.1220 N   0  0  0  0  0  0  0  0  0  0  0  0
    6.0090   21.1040   94.3950 Cl  0  0  0  0  0  0  0  0  0  0  0  0
    2.1340   20.3480   97.6560 N   0  0  0  0  0  0  0  0  0  0  0  0
   -2.1460   16.8990   94.1010 S   0  0  0  0  0  0  0  0  0  0  0  0
   -1.8960   18.3390   94.0810 O   0  0  0  0  0  0  0  0  0  0  0  0
   -3.1020   16.4090   93.1000 O   0  0  0  0  0  0  0  0  0  0  0  0
   -2.7570   16.4540   95.7640 C   0  0  0  0  0  0  0  0  0  0  0  0
   -1.8740   17.0220   96.9080 C   0  0  0  0  0  0  0  0  0  0  0  0
   -4.1620   17.0980   95.8640 C   0  0  0  0  0  0  0  0  0  0  0  0
   -2.8960   14.9250   95.9360 C   0  0  0  0  0  0  0  0  0  0  0  0
    0.9961   13.2478   92.6413 H   0  0  0  0  0  0  0  0  0  0  0  0
   -1.5241   11.8611   93.2372 H   0  0  0  0  0  0  0  0  0  0  0  0
   -0.5333   12.4156   91.8973 H   0  0  0  0  0  0  0  0  0  0  0  0
   -2.7834   13.4747   90.9524 H   0  0  0  0  0  0  0  0  0  0  0  0
   -2.5731   11.6430   90.8909 H   0  0  0  0  0  0  0  0  0  0  0  0
   -3.9383   14.1307   93.3439 H   0  0  0  0  0  0  0  0  0  0  0  0
   -5.2036   12.9222   93.8710 H   0  0  0  0  0  0  0  0  0  0  0  0
   -5.3474   14.7333   91.3927 H   0  0  0  0  0  0  0  0  0  0  0  0
   -6.3138   14.9110   92.8744 H   0  0  0  0  0  0  0  0  0  0  0  0
   -6.9320   11.3660   90.5954 H   0  0  0  0  0  0  0  0  0  0  0  0
   -5.7683   12.5889   89.9352 H   0  0  0  0  0  0  0  0  0  0  0  0
   -5.3864   10.7046   92.3189 H   0  0  0  0  0  0  0  0  0  0  0  0
   -4.4088   10.8380   90.7874 H   0  0  0  0  0  0  0  0  0  0  0  0
    1.6230   18.0949   96.3556 H   0  0  0  0  0  0  0  0  0  0  0  0
    4.8831   18.6046   93.5502 H   0  0  0  0  0  0  0  0  0  0  0  0
   -8.6840   13.9608   92.1206 H   0  0  0  0  0  0  0  0  0  0  0  0
   -7.8933   14.6054   90.6421 H   0  0  0  0  0  0  0  0  0  0  0  0
   -8.5805   12.9458   90.6421 H   0  0  0  0  0  0  0  0  0  0  0  0
    0.4004   17.8136   94.5714 H   0  0  0  0  0  0  0  0  0  0  0  0
    4.9763   16.1470   93.9889 H   0  0  0  0  0  0  0  0  0  0  0  0
    2.4514   20.1379   98.6131 H   0  0  0  0  0  0  0  0  0  0  0  0
    1.2841   20.9105   97.5071 H   0  0  0  0  0  0  0  0  0  0  0  0
   -2.3081   16.7428   97.8794 H   0  0  0  0  0  0  0  0  0  0  0  0
   -0.8583   16.6075   96.8275 H   0  0  0  0  0  0  0  0  0  0  0  0
   -1.8301   18.1182   96.8275 H   0  0  0  0  0  0  0  0  0  0  0  0
   -4.4337   17.2226   96.9226 H   0  0  0  0  0  0  0  0  0  0  0  0
   -4.1508   18.0809   95.3702 H   0  0  0  0  0  0  0  0  0  0  0  0
   -4.8993   16.4480   95.3702 H   0  0  0  0  0  0  0  0  0  0  0  0
   -2.9185   14.6771   97.0075 H   0  0  0  0  0  0  0  0  0  0  0  0
   -3.8287   14.5859   95.4615 H   0  0  0  0  0  0  0  0  0  0  0  0
   -2.0398   14.4233   95.4615 H   0  0  0  0  0  0  0  0  0  0  0  0
 14 24  1  0
 24  8  1  0
 24  7  1  0
  8  9  1  0
  7  6  1  0
  4  3  1  0
  4 23  1  0
  9 23  1  0
 22  3  1  0
 22 16  1  0
  2 16  2  0
  2  1  1  0
 30 28  2  0
 23  6  1  0
 16 17  1  0
 21  1  2  0
 21 20  1  0
  1 15  1  0
 17 28  1  0
 17 18  2  0
 20 19  2  0
 15 18  1  0
 15 19  1  0
 29 28  2  0
 28 31  1  0
 19  5  1  0
 13  5  1  0
 13 12  2  0
 26 12  1  0
  5 10  2  0
 12 25  1  0
 31 34  1  0
 31 32  1  0
 31 33  1  0
 10 11  1  0
 25 11  2  0
 11 27  1  0
  2 35  1  0
  3 36  1  0
  3 37  1  0
  4 38  1  0
  4 39  1  0
  6 40  1  0
  6 41  1  0
  7 42  1  0
  7 43  1  0
  8 44  1  0
  8 45  1  0
  9 46  1  0
  9 47  1  0
 10 48  1  0
 13 49  1  0
 14 50  1  0
 14 51  1  0
 14 52  1  0
 18 53  1  0
 20 54  1  0
 27 55  1  0
 27 56  1  0
 32 57  1  0
 32 58  1  0
 32 59  1  0
 33 60  1  0
 33 61  1  0
 33 62  1  0
 34 63  1  0
 34 64  1  0
 34 65  1  0
A    1
C2
A    2
C3
A    3
C11
A    4
C12
A    5
C14
A    6
C15
A    7
C16
A    8
C18
A    9
C19
A   10
C20
A   11
C21
A   12
C23
A   13
C24
A   14
C27
A   15
N1
A   16
C4
A   17
C5
A   18
C6
A   19
C7
A   20
C8
A   21
N9
A   22
O10
A   23
N13
A   24
N17
A   25
N22
A   26
CL25
A   27
N26
A   28
S28
A   29
O29
A   30
O30
A   31
C31
A   32
C32
A   33
C33
A   34
C34
M  END
