5W70_9YM_A_501
     RDKit          3D

 50 51  0  0  0  0  0  0  0  0999 V2000
   22.7330   10.7890   29.5450 O   0  0  0  0  0  0  0  0  0  0  0  0
   23.9730   10.2620   28.8350 P   0  0  0  0  0  0  0  0  0  0  0  0
   25.0430   11.3170   29.1200 O   0  0  0  0  0  0  0  0  0  0  0  0
   23.7460   10.0380   27.3580 O   0  0  0  0  0  0  0  0  0  0  0  0
   24.5080    8.8930   29.4470 O   0  0  0  0  0  0  0  0  0  0  0  0
   24.6160    8.7990   30.8720 C   0  0  0  0  0  0  0  0  0  0  0  0
   25.6240    7.7230   31.1880 C   0  0  0  0  0  0  0  0  0  0  0  0
   26.9370    7.7870   30.7520 C   0  0  0  0  0  0  0  0  0  0  0  0
   27.4580    8.9440   29.9980 C   0  0  0  0  0  0  0  0  0  0  0  0
   27.9220    6.7280   31.1300 C   0  0  0  0  0  0  0  0  0  0  0  0
   29.1310    6.7280   30.7190 O   0  0  0  0  0  0  0  0  0  0  0  0
   27.3560    5.5760   31.8480 C   0  0  0  0  0  0  0  0  0  0  0  0
   28.2230    4.4120   32.2720 C   0  0  0  0  0  0  0  0  0  0  0  0
   26.0590    5.6280   32.2190 N   0  0  0  0  0  0  0  0  0  0  0  0
   25.2120    6.6130   31.9170 C   0  0  0  0  0  0  0  0  0  0  0  0
   31.4480   14.1890   29.6910 O   0  0  0  0  0  0  0  0  0  0  0  0
   30.5810   13.1530   30.1620 C   0  0  0  0  0  0  0  0  0  0  0  0
   29.3380   12.9990   29.2510 C   0  0  0  0  0  0  0  0  0  0  0  0
   28.4200   14.0890   29.1830 O   0  0  0  0  0  0  0  0  0  0  0  0
   28.5000   11.7640   29.5750 C   0  0  0  0  0  0  0  0  0  0  0  0
   27.7240   11.5200   28.3670 O   0  0  0  0  0  0  0  0  0  0  0  0
   31.4190   11.8750   30.0290 C   0  0  0  0  0  0  0  0  0  0  0  0
   32.6550   11.8940   30.8100 N   0  0  0  0  0  0  0  0  0  0  0  0
   30.6820   10.6630   30.5360 C   0  0  0  0  0  0  0  0  0  0  0  0
   29.3980   10.5150   29.7820 C   0  0  0  0  0  0  0  0  0  0  0  0
   28.6870    9.3700   30.3700 N   0  0  0  0  0  0  0  0  0  0  0  0
   22.8648   10.7330   30.5246 H   0  0  0  0  0  0  0  0  0  0  0  0
   25.1500   11.4225   30.0985 H   0  0  0  0  0  0  0  0  0  0  0  0
   23.6396    8.5357   31.3047 H   0  0  0  0  0  0  0  0  0  0  0  0
   24.9356    9.7617   31.2974 H   0  0  0  0  0  0  0  0  0  0  0  0
   26.7546    9.7796   30.1287 H   0  0  0  0  0  0  0  0  0  0  0  0
   27.5549    8.6089   28.9548 H   0  0  0  0  0  0  0  0  0  0  0  0
   29.5997    5.8706   30.5597 H   0  0  0  0  0  0  0  0  0  0  0  0
   28.2595    4.3630   33.3703 H   0  0  0  0  0  0  0  0  0  0  0  0
   27.7998    3.4766   31.8771 H   0  0  0  0  0  0  0  0  0  0  0  0
   29.2404    4.5496   31.8771 H   0  0  0  0  0  0  0  0  0  0  0  0
   24.1662    6.5459   32.2515 H   0  0  0  0  0  0  0  0  0  0  0  0
   31.8452   14.6636   30.4637 H   0  0  0  0  0  0  0  0  0  0  0  0
   30.2260   13.3646   31.1814 H   0  0  0  0  0  0  0  0  0  0  0  0
   29.8426   12.9280   28.2761 H   0  0  0  0  0  0  0  0  0  0  0  0
   28.1790   14.3751   30.0996 H   0  0  0  0  0  0  0  0  0  0  0  0
   27.9044   11.9279   30.4851 H   0  0  0  0  0  0  0  0  0  0  0  0
   26.8096   11.2325   28.6146 H   0  0  0  0  0  0  0  0  0  0  0  0
   31.6332   11.8283   28.9511 H   0  0  0  0  0  0  0  0  0  0  0  0
   32.4266   11.8905   31.8143 H   0  0  0  0  0  0  0  0  0  0  0  0
   33.2175   11.0616   30.5829 H   0  0  0  0  0  0  0  0  0  0  0  0
   31.3017    9.7666   30.3862 H   0  0  0  0  0  0  0  0  0  0  0  0
   30.4684   10.7830   31.6084 H   0  0  0  0  0  0  0  0  0  0  0  0
   29.6761   10.3447   28.7315 H   0  0  0  0  0  0  0  0  0  0  0  0
   29.3103    8.5612   30.2347 H   0  0  0  0  0  0  0  0  0  0  0  0
 11 10  1  0
 13 12  1  0
 10 12  2  0
 10  8  1  0
 12 14  1  0
 23 22  1  0
 24 22  1  0
 24 25  1  0
 22 17  1  0
 25 26  1  0
 25 20  1  0
 26  9  1  0
  9  8  1  0
  8  7  2  0
 14 15  2  0
 21 20  1  0
 20 18  1  0
 18 17  1  0
 18 19  1  0
 17 16  1  0
  7 15  1  0
  7  6  1  0
  4  2  2  0
  5  6  1  0
  5  2  1  0
  2  3  1  0
  2  1  1  0
  1 27  1  0
  3 28  1  0
  6 29  1  0
  6 30  1  0
  9 31  1  0
  9 32  1  0
 11 33  1  0
 13 34  1  0
 13 35  1  0
 13 36  1  0
 15 37  1  0
 16 38  1  0
 17 39  1  0
 18 40  1  0
 19 41  1  0
 20 42  1  0
 21 43  1  0
 22 44  1  0
 23 45  1  0
 23 46  1  0
 24 47  1  0
 24 48  1  0
 25 49  1  0
 26 50  1  0
A    1
O2P
A    2
P
A    3
O3P
A    4
O1P
A    5
O4P
A    6
C5A
A    7
C5
A    8
C4
A    9
C4A
A   10
C3
A   11
O3
A   12
C2
A   13
C2A
A   14
N1
A   15
C6
A   16
OD4
A   17
CD4
A   18
CD5
A   19
OD5
A   20
CD6
A   21
OD6
A   22
CD3
A   23
ND3
A   24
CD2
A   25
CD1
A   26
ND1
M  END
