5W85_9YS_A_4000
     RDKit          3D

 54 57  0  0  0  0  0  0  0  0999 V2000
    7.0450   42.4100   10.7180 C   0  0  0  0  0  0  0  0  0  0  0  0
    6.9430   44.7910   13.4650 C   0  0  0  0  0  0  0  0  0  0  0  0
    7.6750   44.2560   12.4080 C   0  0  0  0  0  0  0  0  0  0  0  0
    6.2240   41.6240   11.7300 C   0  0  0  0  0  0  0  0  0  0  0  0
    7.5610   45.1210   14.6620 C   0  0  0  0  0  0  0  0  0  0  0  0
    8.9200   44.9160   14.8210 C   0  0  0  0  0  0  0  0  0  0  0  0
    9.6590   44.3840   13.7780 C   0  0  0  0  0  0  0  0  0  0  0  0
    9.0400   44.0550   12.5820 C   0  0  0  0  0  0  0  0  0  0  0  0
   11.6280   43.0280    7.9050 C   0  0  0  0  0  0  0  0  0  0  0  0
   11.4410   43.8230    9.0380 C   0  0  0  0  0  0  0  0  0  0  0  0
    3.1580   41.4430    5.6220 C   0  0  0  0  0  0  0  0  0  0  0  0
   13.7640   42.2710    8.7600 C   0  0  0  0  0  0  0  0  0  0  0  0
    6.5450   42.4590    6.9600 C   0  0  0  0  0  0  0  0  0  0  0  0
    7.3080   42.6720    5.8150 C   0  0  0  0  0  0  0  0  0  0  0  0
    8.6360   42.8380    5.8120 N   0  0  0  0  0  0  0  0  0  0  0  0
    9.2740   42.8060    6.9880 C   0  0  0  0  0  0  0  0  0  0  0  0
    8.6120   42.5990    8.2010 C   0  0  0  0  0  0  0  0  0  0  0  0
    7.2270   42.4240    8.1960 C   0  0  0  0  0  0  0  0  0  0  0  0
    6.5090   42.2140    9.3710 N   0  0  0  0  0  0  0  0  0  0  0  0
   10.6470   42.9950    6.9000 N   0  0  0  0  0  0  0  0  0  0  0  0
    5.0600   42.2850    6.8930 C   0  0  0  0  0  0  0  0  0  0  0  0
    4.5830   41.6190    5.8430 N   0  0  0  0  0  0  0  0  0  0  0  0
    4.3350   42.7410    7.7750 O   0  0  0  0  0  0  0  0  0  0  0  0
    6.9990   43.9000   11.1060 C   0  0  0  0  0  0  0  0  0  0  0  0
    4.8250   41.8630   11.5700 O   0  0  0  0  0  0  0  0  0  0  0  0
   12.4250   43.8240   10.0200 C   0  0  0  0  0  0  0  0  0  0  0  0
   13.5900   43.0580    9.9000 C   0  0  0  0  0  0  0  0  0  0  0  0
   12.7880   42.2590    7.7710 C   0  0  0  0  0  0  0  0  0  0  0  0
   12.4510   44.7030   11.5170 S   0  0  0  0  0  0  0  0  0  0  0  0
   13.9940   43.9840   11.8590 C   0  0  0  0  0  0  0  0  0  0  0  0
   14.4730   43.1700   10.9750 N   0  0  0  0  0  0  0  0  0  0  0  0
    8.0869   42.0572   10.7223 H   0  0  0  0  0  0  0  0  0  0  0  0
    5.8613   44.9539   13.3491 H   0  0  0  0  0  0  0  0  0  0  0  0
    6.4209   40.5505   11.5930 H   0  0  0  0  0  0  0  0  0  0  0  0
    6.5161   41.9509   12.7389 H   0  0  0  0  0  0  0  0  0  0  0  0
    6.9697   45.5464   15.4863 H   0  0  0  0  0  0  0  0  0  0  0  0
    9.4107   45.1743   15.7710 H   0  0  0  0  0  0  0  0  0  0  0  0
   10.7403   44.2219   13.8987 H   0  0  0  0  0  0  0  0  0  0  0  0
    9.6357   43.6299   11.7608 H   0  0  0  0  0  0  0  0  0  0  0  0
   10.5343   44.4354    9.1509 H   0  0  0  0  0  0  0  0  0  0  0  0
    2.6418   41.3792    6.5912 H   0  0  0  0  0  0  0  0  0  0  0  0
    2.7665   42.2996    5.0537 H   0  0  0  0  0  0  0  0  0  0  0  0
    2.9867   40.5169    5.0537 H   0  0  0  0  0  0  0  0  0  0  0  0
   14.6723   41.6614    8.6449 H   0  0  0  0  0  0  0  0  0  0  0  0
    6.7843   42.7061    4.8483 H   0  0  0  0  0  0  0  0  0  0  0  0
    9.1741   42.5743    9.1462 H   0  0  0  0  0  0  0  0  0  0  0  0
    5.5322   41.8986    9.2855 H   0  0  0  0  0  0  0  0  0  0  0  0
   11.0036   43.1333    5.9436 H   0  0  0  0  0  0  0  0  0  0  0  0
    5.2459   41.2156    5.1657 H   0  0  0  0  0  0  0  0  0  0  0  0
    7.4860   44.4738   10.3038 H   0  0  0  0  0  0  0  0  0  0  0  0
    5.9349   44.1426   11.2432 H   0  0  0  0  0  0  0  0  0  0  0  0
    4.3987   41.9358   12.4605 H   0  0  0  0  0  0  0  0  0  0  0  0
   12.9294   41.6384    6.8739 H   0  0  0  0  0  0  0  0  0  0  0  0
   14.5402   44.2107   12.7865 H   0  0  0  0  0  0  0  0  0  0  0  0
 11 22  1  0
 15 14  1  0
 15 16  2  0
 14 13  2  0
 22 21  1  0
 21 13  1  0
 21 23  2  0
 20 16  1  0
 20  9  1  0
 13 18  1  0
 16 17  1  0
 28  9  1  0
 28 12  2  0
  9 10  2  0
 18 17  2  0
 18 19  1  0
 12 27  1  0
 10 26  1  0
 19  1  1  0
 27 26  2  0
 27 31  1  0
 26 29  1  0
  1 24  1  0
  1  4  1  0
 31 30  2  0
 24  3  1  0
 29 30  1  0
 25  4  1  0
  3  8  1  0
  3  2  2  0
  8  7  2  0
  2  5  1  0
  7  6  1  0
  5  6  2  0
  1 32  1  0
  2 33  1  0
  4 34  1  0
  4 35  1  0
  5 36  1  0
  6 37  1  0
  7 38  1  0
  8 39  1  0
 10 40  1  0
 11 41  1  0
 11 42  1  0
 11 43  1  0
 12 44  1  0
 14 45  1  0
 17 46  1  0
 19 47  1  0
 20 48  1  0
 22 49  1  0
 24 50  1  0
 24 51  1  0
 25 52  1  0
 28 53  1  0
 30 54  1  0
A    1
C13
A    2
C18
A    3
C17
A    4
C15
A    5
C19
A    6
C20
A    7
C21
A    8
C22
A    9
C23
A   10
C24
A   11
C12
A   12
C27
A   13
C1
A   14
C2
A   15
N3
A   16
C4
A   17
C5
A   18
C6
A   19
N7
A   20
N8
A   21
C9
A   22
N10
A   23
O11
A   24
C14
A   25
O16
A   26
C25
A   27
C26
A   28
C28
A   29
S29
A   30
C30
A   31
N31
M  END
