5W86_9YV_A_4000
     RDKit          3D

 64 67  0  0  0  0  0  0  0  0999 V2000
   17.5620   14.4100   11.9620 C   0  0  0  0  0  0  0  0  0  0  0  0
   19.3120   15.2560   15.2420 C   0  0  0  0  0  0  0  0  0  0  0  0
   17.8230   15.0530   13.2890 C   0  0  0  0  0  0  0  0  0  0  0  0
   17.7950   12.6040   10.3730 C   0  0  0  0  0  0  0  0  0  0  0  0
   20.1820   16.5150   15.1520 C   0  0  0  0  0  0  0  0  0  0  0  0
   21.6490   16.1550   14.9210 C   0  0  0  0  0  0  0  0  0  0  0  0
   21.3980   13.9920   15.9010 C   0  0  0  0  0  0  0  0  0  0  0  0
   19.9110   14.2130   16.1920 C   0  0  0  0  0  0  0  0  0  0  0  0
   16.6330   14.6090    9.7420 C   0  0  0  0  0  0  0  0  0  0  0  0
   16.8570   15.1340   11.0020 C   0  0  0  0  0  0  0  0  0  0  0  0
   19.7810    9.5430   11.0080 C   0  0  0  0  0  0  0  0  0  0  0  0
   18.9280    8.8400   11.8490 C   0  0  0  0  0  0  0  0  0  0  0  0
   19.0780   10.3280    5.6060 C   0  0  0  0  0  0  0  0  0  0  0  0
   17.9990   11.1250    5.2080 C   0  0  0  0  0  0  0  0  0  0  0  0
   17.3560   11.9920    6.0040 N   0  0  0  0  0  0  0  0  0  0  0  0
   17.7830   12.1130    7.2610 C   0  0  0  0  0  0  0  0  0  0  0  0
   18.8720   11.3910    7.7570 C   0  0  0  0  0  0  0  0  0  0  0  0
   19.5300   10.4720    6.9400 C   0  0  0  0  0  0  0  0  0  0  0  0
   20.5970    9.7210    7.4350 N   0  0  0  0  0  0  0  0  0  0  0  0
   19.5700    9.2830    4.6490 C   0  0  0  0  0  0  0  0  0  0  0  0
   17.0050   12.9380    8.0560 N   0  0  0  0  0  0  0  0  0  0  0  0
   17.1240   13.3490    9.4080 C   0  0  0  0  0  0  0  0  0  0  0  0
   18.0130   13.1290   11.6370 C   0  0  0  0  0  0  0  0  0  0  0  0
   18.9630   14.7110   13.9270 N   0  0  0  0  0  0  0  0  0  0  0  0
   17.0340   15.8770   13.7500 O   0  0  0  0  0  0  0  0  0  0  0  0
   22.1420   15.2520   15.9610 N   0  0  0  0  0  0  0  0  0  0  0  0
   23.5860   15.0090   15.7910 C   0  0  0  0  0  0  0  0  0  0  0  0
   19.2590    9.4210    3.3620 N   0  0  0  0  0  0  0  0  0  0  0  0
   20.1640    8.2940    5.0660 O   0  0  0  0  0  0  0  0  0  0  0  0
   21.0210    9.8180    8.8230 C   0  0  0  0  0  0  0  0  0  0  0  0
   20.1080    9.0480    9.7470 C   0  0  0  0  0  0  0  0  0  0  0  0
   19.5470    7.8350    9.3450 C   0  0  0  0  0  0  0  0  0  0  0  0
   18.6920    7.1330   10.1850 C   0  0  0  0  0  0  0  0  0  0  0  0
   18.3880    7.6310   11.4420 C   0  0  0  0  0  0  0  0  0  0  0  0
   18.3548   15.5631   15.6887 H   0  0  0  0  0  0  0  0  0  0  0  0
   18.1544   11.5929   10.1313 H   0  0  0  0  0  0  0  0  0  0  0  0
   20.0945   17.0800   16.0917 H   0  0  0  0  0  0  0  0  0  0  0  0
   19.8331   17.1206   14.3026 H   0  0  0  0  0  0  0  0  0  0  0  0
   21.7479   15.6630   13.9422 H   0  0  0  0  0  0  0  0  0  0  0  0
   22.2438   17.0798   14.9520 H   0  0  0  0  0  0  0  0  0  0  0  0
   21.5064   13.5587   14.8958 H   0  0  0  0  0  0  0  0  0  0  0  0
   21.8046   13.3106   16.6628 H   0  0  0  0  0  0  0  0  0  0  0  0
   19.7959   14.5630   17.2285 H   0  0  0  0  0  0  0  0  0  0  0  0
   19.3808   13.2606   16.0444 H   0  0  0  0  0  0  0  0  0  0  0  0
   16.0645   15.1892    9.0003 H   0  0  0  0  0  0  0  0  0  0  0  0
   16.4741   16.1351   11.2494 H   0  0  0  0  0  0  0  0  0  0  0  0
   20.2036   10.5023   11.3414 H   0  0  0  0  0  0  0  0  0  0  0  0
   18.6804    9.2446   12.8415 H   0  0  0  0  0  0  0  0  0  0  0  0
   17.6533   11.0339    4.1677 H   0  0  0  0  0  0  0  0  0  0  0  0
   19.2102   11.5476    8.7919 H   0  0  0  0  0  0  0  0  0  0  0  0
   21.0972    9.0815    6.8011 H   0  0  0  0  0  0  0  0  0  0  0  0
   16.1829   13.3275    7.5730 H   0  0  0  0  0  0  0  0  0  0  0  0
   18.5461   12.5312   12.3910 H   0  0  0  0  0  0  0  0  0  0  0  0
   19.6074   14.0464   13.4754 H   0  0  0  0  0  0  0  0  0  0  0  0
   24.0631   14.9287   16.7789 H   0  0  0  0  0  0  0  0  0  0  0  0
   23.7372   14.0728   15.2336 H   0  0  0  0  0  0  0  0  0  0  0  0
   24.0352   15.8442   15.2336 H   0  0  0  0  0  0  0  0  0  0  0  0
   18.3504    9.8242    3.0921 H   0  0  0  0  0  0  0  0  0  0  0  0
   19.9269    9.1246    2.6361 H   0  0  0  0  0  0  0  0  0  0  0  0
   22.0401    9.4138    8.9124 H   0  0  0  0  0  0  0  0  0  0  0  0
   20.9869   10.8777    9.1161 H   0  0  0  0  0  0  0  0  0  0  0  0
   19.7849    7.4297    8.3504 H   0  0  0  0  0  0  0  0  0  0  0  0
   18.2554    6.1799    9.8518 H   0  0  0  0  0  0  0  0  0  0  0  0
   17.7215    7.0693   12.1130 H   0  0  0  0  0  0  0  0  0  0  0  0
 28 20  1  0
 20 29  2  0
 20 13  1  0
 14 13  2  0
 14 15  1  0
 13 18  1  0
 15 16  2  0
 18 19  1  0
 18 17  2  0
 16 17  1  0
 16 21  1  0
 19 30  1  0
 21 22  1  0
 30 31  1  0
 32 31  1  0
 32 33  2  0
 22  9  1  0
 22  4  2  0
  9 10  2  0
 31 11  2  0
 33 34  1  0
  4 23  1  0
 10  1  1  0
 11 12  1  0
 34 12  2  0
 23  1  2  0
  1  3  1  0
  3 25  2  0
  3 24  1  0
 24  2  1  0
  6  5  1  0
  6 26  1  0
  5  2  1  0
  2  8  1  0
 27 26  1  0
  7 26  1  0
  7  8  1  0
  2 35  1  0
  4 36  1  0
  5 37  1  0
  5 38  1  0
  6 39  1  0
  6 40  1  0
  7 41  1  0
  7 42  1  0
  8 43  1  0
  8 44  1  0
  9 45  1  0
 10 46  1  0
 11 47  1  0
 12 48  1  0
 14 49  1  0
 17 50  1  0
 19 51  1  0
 21 52  1  0
 23 53  1  0
 24 54  1  0
 27 55  1  0
 27 56  1  0
 27 57  1  0
 28 58  1  0
 28 59  1  0
 30 60  1  0
 30 61  1  0
 32 62  1  0
 33 63  1  0
 34 64  1  0
A    1
C13
A    2
C18
A    3
C16
A    4
C15
A    5
C20
A    6
C21
A    7
C23
A    8
C24
A    9
C11
A   10
C12
A   11
C34
A   12
C33
A   13
C1
A   14
C2
A   15
N3
A   16
C4
A   17
C5
A   18
C6
A   19
N7
A   20
C8
A   21
N9
A   22
C10
A   23
C14
A   24
N17
A   25
O19
A   26
N22
A   27
C25
A   28
N26
A   29
O27
A   30
C28
A   31
C29
A   32
C30
A   33
C31
A   34
C32
M  END
