5W8V_9YP_A_301
     RDKit          3D

 49 50  0  0  0  0  0  0  0  0999 V2000
   -1.4480   28.0530   81.6890 O   0  0  0  0  0  0  0  0  0  0  0  0
   -0.4290   29.1920   81.9900 P   0  0  0  0  0  0  0  0  0  0  0  0
    0.9030   28.9150   81.2290 O   0  0  0  0  0  0  0  0  0  0  0  0
   -0.1600   29.2500   83.4610 O   0  0  0  0  0  0  0  0  0  0  0  0
   -1.1250   30.7920   81.4590 C   0  0  0  0  0  0  0  0  0  0  0  0
   -0.4570   31.4840   80.3230 C   0  0  0  0  0  0  0  0  0  0  0  0
   -0.9470   31.2060   79.0680 O   0  0  0  0  0  0  0  0  0  0  0  0
   -0.2290   30.3660   78.2500 C   0  0  0  0  0  0  0  0  0  0  0  0
   -0.9000   29.8590   77.0220 C   0  0  0  0  0  0  0  0  0  0  0  0
    0.0070   30.0250   75.8510 C   0  0  0  0  0  0  0  0  0  0  0  0
    0.9840   30.9990   75.8910 O   0  0  0  0  0  0  0  0  0  0  0  0
    1.8370   31.0960   74.8120 C   0  0  0  0  0  0  0  0  0  0  0  0
    2.4930   32.7240   74.2990 P   0  0  0  0  0  0  0  0  0  0  0  0
    3.1760   33.4440   75.4960 O   0  0  0  0  0  0  0  0  0  0  0  0
    3.5310   32.5010   73.1630 O   0  0  0  0  0  0  0  0  0  0  0  0
    1.3860   33.5900   73.7890 O   0  0  0  0  0  0  0  0  0  0  0  0
   -2.1980   30.5600   76.7690 C   0  0  0  0  0  0  0  0  0  0  0  0
   -2.9590   30.0620   75.6610 N   0  0  0  0  0  0  0  0  0  0  0  0
   -3.8120   28.9730   75.7000 C   0  0  0  0  0  0  0  0  0  0  0  0
   -4.1990   28.1040   76.6960 N   0  0  0  0  0  0  0  0  0  0  0  0
   -5.0710   27.1200   76.4440 C   0  0  0  0  0  0  0  0  0  0  0  0
   -5.4560   26.2330   77.4960 N   0  0  0  0  0  0  0  0  0  0  0  0
   -5.5870   26.9530   75.2110 N   0  0  0  0  0  0  0  0  0  0  0  0
   -5.2570   27.7610   74.1820 C   0  0  0  0  0  0  0  0  0  0  0  0
   -5.8020   27.5630   72.9350 O   0  0  0  0  0  0  0  0  0  0  0  0
   -4.3310   28.8190   74.4300 C   0  0  0  0  0  0  0  0  0  0  0  0
   -3.7710   29.8190   73.6530 N   0  0  0  0  0  0  0  0  0  0  0  0
   -2.9410   30.5580   74.4120 C   0  0  0  0  0  0  0  0  0  0  0  0
   -1.7841   27.6773   82.5410 H   0  0  0  0  0  0  0  0  0  0  0  0
   -0.9975   29.0694   83.9570 H   0  0  0  0  0  0  0  0  0  0  0  0
   -1.0919   31.4702   82.3244 H   0  0  0  0  0  0  0  0  0  0  0  0
   -2.1333   30.5527   81.0902 H   0  0  0  0  0  0  0  0  0  0  0  0
    0.6064   31.2028   80.3377 H   0  0  0  0  0  0  0  0  0  0  0  0
   -0.6450   32.5563   80.4808 H   0  0  0  0  0  0  0  0  0  0  0  0
    0.0621   29.4916   78.8506 H   0  0  0  0  0  0  0  0  0  0  0  0
    0.6032   30.9822   77.8789 H   0  0  0  0  0  0  0  0  0  0  0  0
   -1.1227   28.7923   77.1723 H   0  0  0  0  0  0  0  0  0  0  0  0
   -0.6286   30.2424   74.9800 H   0  0  0  0  0  0  0  0  0  0  0  0
    0.5756   29.0838   75.8239 H   0  0  0  0  0  0  0  0  0  0  0  0
    1.2988   30.6846   73.9454 H   0  0  0  0  0  0  0  0  0  0  0  0
    2.7352   30.5614   75.1547 H   0  0  0  0  0  0  0  0  0  0  0  0
    2.8264   33.0755   76.3458 H   0  0  0  0  0  0  0  0  0  0  0  0
    0.8909   33.9773   74.5538 H   0  0  0  0  0  0  0  0  0  0  0  0
   -1.9796   31.6216   76.5811 H   0  0  0  0  0  0  0  0  0  0  0  0
   -2.8153   30.3877   77.6630 H   0  0  0  0  0  0  0  0  0  0  0  0
   -5.3333   26.5157   78.4788 H   0  0  0  0  0  0  0  0  0  0  0  0
   -5.8562   25.3109   77.2715 H   0  0  0  0  0  0  0  0  0  0  0  0
   -6.2539   26.1850   75.0487 H   0  0  0  0  0  0  0  0  0  0  0  0
   -2.3496   31.4198   74.0691 H   0  0  0  0  0  0  0  0  0  0  0  0
 25 24  2  0
 15 13  2  0
 27 28  2  0
 27 26  1  0
 16 13  1  0
 24 26  1  0
 24 23  1  0
 13 12  1  0
 13 14  1  0
 28 18  1  0
 26 19  2  0
 12 11  1  0
 23 21  1  0
 18 19  1  0
 18 17  1  0
 19 20  1  0
 10 11  1  0
 10  9  1  0
 21 20  2  0
 21 22  1  0
 17  9  1  0
  9  8  1  0
  8  7  1  0
  7  6  1  0
  6  5  1  0
  3  2  2  0
  5  2  1  0
  1  2  1  0
  2  4  1  0
  1 29  1  0
  4 30  1  0
  5 31  1  0
  5 32  1  0
  6 33  1  0
  6 34  1  0
  8 35  1  0
  8 36  1  0
  9 37  1  0
 10 38  1  0
 10 39  1  0
 12 40  1  0
 12 41  1  0
 14 42  1  0
 16 43  1  0
 17 44  1  0
 17 45  1  0
 22 46  1  0
 22 47  1  0
 23 48  1  0
 28 49  1  0
A    1
OAE
A    2
PBA
A    3
OAF
A    4
OAC
A    5
CAL
A    6
CAK
A    7
OAS
A    8
CAM
A    9
CAY
A   10
CAN
A   11
OAT
A   12
CAO
A   13
PBB
A   14
OAG
A   15
OAH
A   16
OAD
A   17
CAP
A   18
NAZ
A   19
CAW
A   20
CAJ
A   21
CAU
A   22
NAA
A   23
NAR
A   24
CAV
A   25
OAB
A   26
CAX
A   27
NAQ
A   28
CAI
M  END
