5WA8_9ZA_A_201
     RDKit          3D

 50 52  0  0  0  0  0  0  0  0999 V2000
  -30.9260    3.7320  -22.6380 O   0  0  0  0  0  0  0  0  0  0  0  0
  -31.5930    3.8410  -23.9780 P   0  0  0  0  0  0  0  0  0  0  0  0
  -32.3750    2.6690  -24.5160 O   0  0  0  0  0  0  0  0  0  0  0  0
  -30.4050    4.2000  -24.9910 O   0  0  0  0  0  0  0  0  0  0  0  0
  -30.5690    3.9830  -26.3880 C   0  0  0  0  0  0  0  0  0  0  0  0
  -29.5890    4.8930  -27.1080 C   0  0  0  0  0  0  0  0  0  0  0  0
  -30.0230    6.3640  -27.1410 C   0  0  0  0  0  0  0  0  0  0  0  0
  -29.0420    7.1780  -26.4750 O   0  0  0  0  0  0  0  0  0  0  0  0
  -30.1380    6.6680  -28.6330 C   0  0  0  0  0  0  0  0  0  0  0  0
  -29.6900    7.9680  -29.0240 O   0  0  0  0  0  0  0  0  0  0  0  0
  -29.2410    5.5960  -29.2290 C   0  0  0  0  0  0  0  0  0  0  0  0
  -29.5080    4.4400  -28.4600 O   0  0  0  0  0  0  0  0  0  0  0  0
  -29.5520    5.2530  -30.6230 N   0  0  0  0  0  0  0  0  0  0  0  0
  -28.6210    5.0650  -31.5460 C   0  0  0  0  0  0  0  0  0  0  0  0
  -29.3520    4.7200  -32.7520 C   0  0  0  0  0  0  0  0  0  0  0  0
  -30.6600    4.7280  -32.4520 N   0  0  0  0  0  0  0  0  0  0  0  0
  -30.7750    5.0370  -31.1380 C   0  0  0  0  0  0  0  0  0  0  0  0
  -27.2730    5.1450  -31.5380 N   0  0  0  0  0  0  0  0  0  0  0  0
  -26.5990    4.8980  -32.6710 C   0  0  0  0  0  0  0  0  0  0  0  0
  -27.2040    4.5760  -33.8310 N   0  0  0  0  0  0  0  0  0  0  0  0
  -28.5440    4.4750  -33.9450 C   0  0  0  0  0  0  0  0  0  0  0  0
  -29.1460    4.1620  -35.1210 N   0  0  0  0  0  0  0  0  0  0  0  0
  -32.6940    5.1640  -24.0000 N   0  0  0  0  0  0  0  0  0  0  0  0
  -32.4320    6.3500  -23.2120 C   0  0  0  0  0  0  0  0  0  0  0  0
  -33.4230    7.3800  -23.6080 C   0  0  0  0  0  0  0  0  0  0  0  0
  -31.0380    6.9350  -23.4140 C   0  0  0  0  0  0  0  0  0  0  0  0
  -34.0630    7.3340  -24.6400 O   0  0  0  0  0  0  0  0  0  0  0  0
  -33.6190    8.4670  -22.7070 O   0  0  0  0  0  0  0  0  0  0  0  0
  -34.4790    9.5340  -23.1120 C   0  0  0  0  0  0  0  0  0  0  0  0
  -31.6018    3.8424  -21.9230 H   0  0  0  0  0  0  0  0  0  0  0  0
  -31.5987    4.2273  -26.6880 H   0  0  0  0  0  0  0  0  0  0  0  0
  -30.3790    2.9297  -26.6420 H   0  0  0  0  0  0  0  0  0  0  0  0
  -28.6330    4.8463  -26.5659 H   0  0  0  0  0  0  0  0  0  0  0  0
  -30.9684    6.5700  -26.6177 H   0  0  0  0  0  0  0  0  0  0  0  0
  -29.1495    7.0888  -25.4949 H   0  0  0  0  0  0  0  0  0  0  0  0
  -31.1863    6.6628  -28.9664 H   0  0  0  0  0  0  0  0  0  0  0  0
  -29.5034    8.5095  -28.2165 H   0  0  0  0  0  0  0  0  0  0  0  0
  -28.2025    5.9583  -29.2155 H   0  0  0  0  0  0  0  0  0  0  0  0
  -31.7207    5.1011  -30.5799 H   0  0  0  0  0  0  0  0  0  0  0  0
  -25.5010    4.9613  -32.6523 H   0  0  0  0  0  0  0  0  0  0  0  0
  -30.0599    3.6869  -35.1213 H   0  0  0  0  0  0  0  0  0  0  0  0
  -28.6888    4.3997  -36.0129 H   0  0  0  0  0  0  0  0  0  0  0  0
  -32.7670    5.4711  -24.9804 H   0  0  0  0  0  0  0  0  0  0  0  0
  -32.5047    6.0597  -22.1535 H   0  0  0  0  0  0  0  0  0  0  0  0
  -30.5762    7.1288  -22.4346 H   0  0  0  0  0  0  0  0  0  0  0  0
  -30.4187    6.2209  -23.9765 H   0  0  0  0  0  0  0  0  0  0  0  0
  -31.1137    7.8772  -23.9765 H   0  0  0  0  0  0  0  0  0  0  0  0
  -34.8841   10.0366  -22.2213 H   0  0  0  0  0  0  0  0  0  0  0  0
  -33.9082   10.2570  -23.7132 H   0  0  0  0  0  0  0  0  0  0  0  0
  -35.3067    9.1297  -23.7132 H   0  0  0  0  0  0  0  0  0  0  0  0
 22 21  1  0
 21 20  1  0
 21 15  2  0
 20 19  2  0
 15 16  1  0
 15 14  1  0
 19 18  1  0
 16 17  2  0
 14 18  2  0
 14 13  1  0
 17 13  1  0
 13 11  1  0
 11  9  1  0
 11 12  1  0
 10  9  1  0
  9  7  1  0
 12  6  1  0
  7  6  1  0
  7  8  1  0
  6  5  1  0
  5  4  1  0
  4  2  1  0
 27 25  2  0
  3  2  2  0
 23  2  1  0
 23 24  1  0
  2  1  1  0
 25 24  1  0
 25 28  1  0
 26 24  1  0
 29 28  1  0
  1 30  1  0
  5 31  1  0
  5 32  1  0
  6 33  1  0
  7 34  1  0
  8 35  1  0
  9 36  1  0
 10 37  1  0
 11 38  1  0
 17 39  1  0
 19 40  1  0
 22 41  1  0
 22 42  1  0
 23 43  1  0
 24 44  1  0
 26 45  1  0
 26 46  1  0
 26 47  1  0
 29 48  1  0
 29 49  1  0
 29 50  1  0
A    1
O3P
A    2
P
A    3
O2P
A    4
O5'
A    5
C5'
A    6
C4'
A    7
C3'
A    8
O3'
A    9
C2'
A   10
O2'
A   11
C1'
A   12
O4'
A   13
N9
A   14
C4
A   15
C5
A   16
N7
A   17
C8
A   18
N3
A   19
C2
A   20
N1
A   21
C6
A   22
N6
A   23
N2
A   24
C3
A   25
C7
A   26
C9
A   27
O10
A   28
O11
A   29
C12
M  END
