5WBE_63X_A_803
     RDKit          3D

 42 44  0  0  0  0  0  0  0  0999 V2000
   38.6850  163.8820   30.7270 C   0  0  0  0  0  0  0  0  0  0  0  0
   39.6370  163.3490   29.8820 C   0  0  0  0  0  0  0  0  0  0  0  0
   31.7110  160.9570   28.3220 C   0  0  0  0  0  0  0  0  0  0  0  0
   35.4420  163.1760   26.1770 C   0  0  0  0  0  0  0  0  0  0  0  0
   32.9200  162.4120   26.9900 C   0  0  0  0  0  0  0  0  0  0  0  0
   38.9890  164.0770   25.4420 C   0  0  0  0  0  0  0  0  0  0  0  0
   34.0350  161.7150   27.4360 C   0  0  0  0  0  0  0  0  0  0  0  0
   34.3300  163.8620   25.7140 C   0  0  0  0  0  0  0  0  0  0  0  0
   33.0630  163.4870   26.1310 C   0  0  0  0  0  0  0  0  0  0  0  0
   38.0330  163.7920   26.4490 C   0  0  0  0  0  0  0  0  0  0  0  0
   38.2420  163.8100   27.9720 C   0  0  0  0  0  0  0  0  0  0  0  0
   35.2970  162.0900   27.0220 C   0  0  0  0  0  0  0  0  0  0  0  0
   37.5020  164.3810   30.2010 C   0  0  0  0  0  0  0  0  0  0  0  0
   40.4710  164.3980   25.6110 C   0  0  0  0  0  0  0  0  0  0  0  0
   38.4170  163.9700   24.2810 O   0  0  0  0  0  0  0  0  0  0  0  0
   37.1540  163.6640   24.4170 N   0  0  0  0  0  0  0  0  0  0  0  0
   36.8310  163.5530   25.6980 C   0  0  0  0  0  0  0  0  0  0  0  0
   39.4160  163.3160   28.5180 C   0  0  0  0  0  0  0  0  0  0  0  0
   37.2880  164.3550   28.8260 C   0  0  0  0  0  0  0  0  0  0  0  0
   31.6490  162.0190   27.4160 O   0  0  0  0  0  0  0  0  0  0  0  0
   38.9480  163.8890   32.1000 O   0  0  0  0  0  0  0  0  0  0  0  0
   37.8930  164.2910   32.9180 C   0  0  0  0  0  0  0  0  0  0  0  0
   41.2020  163.0460   25.6540 C   0  0  0  0  0  0  0  0  0  0  0  0
   41.9250  162.7150   26.6350 O   0  0  0  0  0  0  0  0  0  0  0  0
   41.0600  162.2330   24.7010 O   0  0  0  0  0  0  0  0  0  0  0  0
   40.5747  162.9491   30.2953 H   0  0  0  0  0  0  0  0  0  0  0  0
   31.6881  161.3496   29.3493 H   0  0  0  0  0  0  0  0  0  0  0  0
   30.8502  160.2903   28.1650 H   0  0  0  0  0  0  0  0  0  0  0  0
   32.6435  160.3950   28.1650 H   0  0  0  0  0  0  0  0  0  0  0  0
   33.9123  160.8626   28.1204 H   0  0  0  0  0  0  0  0  0  0  0  0
   34.4533  164.7033   25.0162 H   0  0  0  0  0  0  0  0  0  0  0  0
   32.1782  164.0395   25.7819 H   0  0  0  0  0  0  0  0  0  0  0  0
   36.1808  161.5298   27.3612 H   0  0  0  0  0  0  0  0  0  0  0  0
   36.7341  164.7967   30.8700 H   0  0  0  0  0  0  0  0  0  0  0  0
   40.8301  164.9985   24.7622 H   0  0  0  0  0  0  0  0  0  0  0  0
   40.6526  164.9805   26.5263 H   0  0  0  0  0  0  0  0  0  0  0  0
   40.1842  162.8909   27.8553 H   0  0  0  0  0  0  0  0  0  0  0  0
   36.3571  164.7687   28.4109 H   0  0  0  0  0  0  0  0  0  0  0  0
   38.1841  164.1801   33.9730 H   0  0  0  0  0  0  0  0  0  0  0  0
   37.6510  165.3443   32.7132 H   0  0  0  0  0  0  0  0  0  0  0  0
   37.0114  163.6658   32.7132 H   0  0  0  0  0  0  0  0  0  0  0  0
   41.6028  162.8625   27.5594 H   0  0  0  0  0  0  0  0  0  0  0  0
 15 16  1  0
 15  6  1  0
 16 17  2  0
 25 23  2  0
  6 14  1  0
  6 10  2  0
 14 23  1  0
 23 24  1  0
 17  4  1  0
 17 10  1  0
  8  9  1  0
  8  4  2  0
  9  5  2  0
  4 12  1  0
 10 11  1  0
  5 20  1  0
  5  7  1  0
 12  7  2  0
 20  3  1  0
 11 18  2  0
 11 19  1  0
 18  2  1  0
 19 13  2  0
  2  1  2  0
 13  1  1  0
  1 21  1  0
 21 22  1  0
  2 26  1  0
  3 27  1  0
  3 28  1  0
  3 29  1  0
  7 30  1  0
  8 31  1  0
  9 32  1  0
 12 33  1  0
 13 34  1  0
 14 35  1  0
 14 36  1  0
 18 37  1  0
 19 38  1  0
 22 39  1  0
 22 40  1  0
 22 41  1  0
 24 42  1  0
A    1
C15
A    2
C14
A    3
C20
A    4
C6
A    5
C9
A    6
C3
A    7
C10
A    8
C7
A    9
C8
A   10
C5
A   11
C12
A   12
C11
A   13
C16
A   14
C22
A   15
O1
A   16
N2
A   17
C4
A   18
C13
A   19
C17
A   20
O18
A   21
O19
A   22
C21
A   23
C23
A   24
O24
A   25
O25
M  END
