5WBN_9ZV_A_1304
     RDKit          3D

 43 46  0  0  0  0  0  0  0  0999 V2000
   -2.9240    1.1000    9.7170 C   0  0  0  0  0  0  0  0  0  0  0  0
   -1.2400    1.9970    8.2930 N   0  0  0  0  0  0  0  0  0  0  0  0
   -3.3410    3.5600   13.2250 C   0  0  0  0  0  0  0  0  0  0  0  0
   -3.5150    2.7140    7.7860 C   0  0  0  0  0  0  0  0  0  0  0  0
    0.6800    4.8610    4.0550 C   0  0  0  0  0  0  0  0  0  0  0  0
   -0.1550    5.4950    3.1560 C   0  0  0  0  0  0  0  0  0  0  0  0
   -3.0890    3.4100    6.7170 N   0  0  0  0  0  0  0  0  0  0  0  0
    4.4770    3.9790    7.0760 O   0  0  0  0  0  0  0  0  0  0  0  0
   -4.7200    2.6870    8.1100 O   0  0  0  0  0  0  0  0  0  0  0  0
    2.9340    2.2160    7.6530 C   0  0  0  0  0  0  0  0  0  0  0  0
    1.4290    2.1050    7.9290 C   0  0  0  0  0  0  0  0  0  0  0  0
    0.5450    2.9040    7.0270 C   0  0  0  0  0  0  0  0  0  0  0  0
    0.1480    4.1790    5.1490 C   0  0  0  0  0  0  0  0  0  0  0  0
   -1.2470    4.1330    5.3150 C   0  0  0  0  0  0  0  0  0  0  0  0
   -2.0820    4.7460    4.3740 C   0  0  0  0  0  0  0  0  0  0  0  0
   -1.5280    5.4310    3.3030 C   0  0  0  0  0  0  0  0  0  0  0  0
   -1.7680    3.4220    6.4740 C   0  0  0  0  0  0  0  0  0  0  0  0
   -2.5070    1.9540    8.5560 C   0  0  0  0  0  0  0  0  0  0  0  0
   -3.0650    1.9620   10.9520 C   0  0  0  0  0  0  0  0  0  0  0  0
   -4.3130    2.1490   11.5490 C   0  0  0  0  0  0  0  0  0  0  0  0
   -4.4440    2.9430   12.6840 C   0  0  0  0  0  0  0  0  0  0  0  0
   -2.0990    3.3810   12.6490 C   0  0  0  0  0  0  0  0  0  0  0  0
   -1.9600    2.5900   11.5160 C   0  0  0  0  0  0  0  0  0  0  0  0
   -0.8190    2.8120    7.2870 N   0  0  0  0  0  0  0  0  0  0  0  0
    3.5480    3.5830    7.7980 C   0  0  0  0  0  0  0  0  0  0  0  0
    3.0210    4.3270    8.7430 O   0  0  0  0  0  0  0  0  0  0  0  0
    1.0450    3.5630    6.0390 N   0  0  0  0  0  0  0  0  0  0  0  0
   -3.8884    0.6210    9.4921 H   0  0  0  0  0  0  0  0  0  0  0  0
   -2.1628    0.3261    9.8950 H   0  0  0  0  0  0  0  0  0  0  0  0
   -3.4479    4.1959   14.1162 H   0  0  0  0  0  0  0  0  0  0  0  0
    1.7696    4.8941    3.9075 H   0  0  0  0  0  0  0  0  0  0  0  0
    0.2769    6.0566    2.3145 H   0  0  0  0  0  0  0  0  0  0  0  0
    3.1095    1.8794    6.6206 H   0  0  0  0  0  0  0  0  0  0  0  0
    3.4163    1.5986    8.4252 H   0  0  0  0  0  0  0  0  0  0  0  0
    1.2490    2.4390    8.9615 H   0  0  0  0  0  0  0  0  0  0  0  0
    1.1677    1.0517    7.7495 H   0  0  0  0  0  0  0  0  0  0  0  0
   -3.1748    4.6847    4.4836 H   0  0  0  0  0  0  0  0  0  0  0  0
   -2.1823    5.9243    2.5691 H   0  0  0  0  0  0  0  0  0  0  0  0
   -5.2012    1.6640   11.1180 H   0  0  0  0  0  0  0  0  0  0  0  0
   -5.4317    3.0773   13.1492 H   0  0  0  0  0  0  0  0  0  0  0  0
   -1.2159    3.8670   13.0894 H   0  0  0  0  0  0  0  0  0  0  0  0
   -0.9672    2.4591   11.0608 H   0  0  0  0  0  0  0  0  0  0  0  0
    3.1790    4.1040    9.6945 H   0  0  0  0  0  0  0  0  0  0  0  0
  6 16  2  0
  6  5  1  0
 16 15  1  0
  5 13  2  0
 15 14  2  0
 13 14  1  0
 13 27  1  0
 14 17  1  0
 27 12  2  0
 17  7  2  0
 17 24  1  0
  7  4  1  0
 12 24  1  0
 12 11  1  0
  8 25  2  0
 24  2  1  0
 10 25  1  0
 10 11  1  0
  4  9  2  0
  4 18  1  0
 25 26  1  0
  2 18  2  0
 18  1  1  0
  1 19  1  0
 19 23  2  0
 19 20  1  0
 23 22  1  0
 20 21  2  0
 22  3  2  0
 21  3  1  0
  1 28  1  0
  1 29  1  0
  3 30  1  0
  5 31  1  0
  6 32  1  0
 10 33  1  0
 10 34  1  0
 11 35  1  0
 11 36  1  0
 15 37  1  0
 16 38  1  0
 20 39  1  0
 21 40  1  0
 22 41  1  0
 23 42  1  0
 26 43  1  0
A    1
C13
A    2
N2
A    3
C17
A    4
C11
A    5
C9
A    6
C8
A    7
N1
A    8
O1
A    9
O2
A   10
C1
A   11
C2
A   12
C3
A   13
C4
A   14
C5
A   15
C6
A   16
C7
A   17
C10
A   18
C12
A   19
C14
A   20
C19
A   21
C18
A   22
C16
A   23
C15
A   24
N3
A   25
C
A   26
O
A   27
N
M  END
