5WBO_A1Y_A_301
     RDKit          3D

 31 32  0  0  0  0  0  0  0  0999 V2000
   -3.0610   -0.6750   17.9170 N   0  0  0  0  0  0  0  0  0  0  0  0
   -5.6940   -0.2000   20.3180 C   0  0  0  0  0  0  0  0  0  0  0  0
   -2.1940   -4.1770   19.4840 N   0  0  0  0  0  0  0  0  0  0  0  0
   -2.9330   -3.3010   19.5290 C   0  0  0  0  0  0  0  0  0  0  0  0
   -3.9020   -2.2560   19.6610 C   0  0  0  0  0  0  0  0  0  0  0  0
   -2.2950   -1.2120   15.6560 C   0  0  0  0  0  0  0  0  0  0  0  0
   -3.2230   -1.5960   16.7680 C   0  0  0  0  0  0  0  0  0  0  0  0
   -5.0960   -3.8530   21.2740 C   0  0  0  0  0  0  0  0  0  0  0  0
   -4.9370   -2.4870   20.6450 C   0  0  0  0  0  0  0  0  0  0  0  0
   -5.8290   -1.4450   20.9770 C   0  0  0  0  0  0  0  0  0  0  0  0
   -4.7670    0.0400   19.3650 N   0  0  0  0  0  0  0  0  0  0  0  0
   -3.8380   -0.9480   18.9550 C   0  0  0  0  0  0  0  0  0  0  0  0
   -2.5450    0.1120   15.2340 O   0  0  0  0  0  0  0  0  0  0  0  0
   -2.2460    1.0080   16.3010 C   0  0  0  0  0  0  0  0  0  0  0  0
   -3.1040    0.7620   17.5200 C   0  0  0  0  0  0  0  0  0  0  0  0
   -6.6090    0.9370   20.6340 C   0  0  0  0  0  0  0  0  0  0  0  0
   -2.4449   -1.8961   14.8077 H   0  0  0  0  0  0  0  0  0  0  0  0
   -1.2591   -1.2782   16.0202 H   0  0  0  0  0  0  0  0  0  0  0  0
   -4.2610   -1.5464   16.4073 H   0  0  0  0  0  0  0  0  0  0  0  0
   -2.9847   -2.6191   17.0944 H   0  0  0  0  0  0  0  0  0  0  0  0
   -5.0847   -3.7557   22.3696 H   0  0  0  0  0  0  0  0  0  0  0  0
   -6.0516   -4.2946   20.9549 H   0  0  0  0  0  0  0  0  0  0  0  0
   -4.2674   -4.5023   20.9549 H   0  0  0  0  0  0  0  0  0  0  0  0
   -6.6135   -1.5975   21.7329 H   0  0  0  0  0  0  0  0  0  0  0  0
   -1.1899    0.8825   16.5817 H   0  0  0  0  0  0  0  0  0  0  0  0
   -2.4517    2.0292   15.9478 H   0  0  0  0  0  0  0  0  0  0  0  0
   -2.7325    1.3774   18.3526 H   0  0  0  0  0  0  0  0  0  0  0  0
   -4.1433    1.0303   17.2795 H   0  0  0  0  0  0  0  0  0  0  0  0
   -6.6961    1.0452   21.7252 H   0  0  0  0  0  0  0  0  0  0  0  0
   -6.2028    1.8648   20.2048 H   0  0  0  0  0  0  0  0  0  0  0  0
   -7.6022    0.7386   20.2048 H   0  0  0  0  0  0  0  0  0  0  0  0
 13  6  1  0
 13 14  1  0
  6  7  1  0
 14 15  1  0
  7  1  1  0
 15  1  1  0
  1 12  1  0
 12 11  1  0
 12  5  2  0
 11  2  2  0
  3  4  3  0
  4  5  1  0
  5  9  1  0
  2 16  1  0
  2 10  1  0
  9 10  2  0
  9  8  1  0
  6 17  1  0
  6 18  1  0
  7 19  1  0
  7 20  1  0
  8 21  1  0
  8 22  1  0
  8 23  1  0
 10 24  1  0
 14 25  1  0
 14 26  1  0
 15 27  1  0
 15 28  1  0
 16 29  1  0
 16 30  1  0
 16 31  1  0
A    1
N3
A    2
C4
A    3
N2
A    4
C7
A    5
C6
A    6
C9
A    7
C8
A    8
C1
A    9
C2
A   10
C3
A   11
N1
A   12
C5
A   13
O1
A   14
C10
A   15
C11
A   16
C12
M  END
