5WBP_A2J_A_301
     RDKit          3D

 20 21  0  0  0  0  0  0  0  0999 V2000
   -3.1710   -0.8910   18.2610 C   0  0  0  0  0  0  0  0  0  0  0  0
   -2.9550   -2.1420   18.8320 N   0  0  0  0  0  0  0  0  0  0  0  0
   -4.7210   -1.6230   20.4920 C   0  0  0  0  0  0  0  0  0  0  0  0
   -4.3100    1.2580   18.2190 C   0  0  0  0  0  0  0  0  0  0  0  0
   -3.5390   -3.9080   20.3700 C   0  0  0  0  0  0  0  0  0  0  0  0
   -3.6930   -2.5000   19.8740 C   0  0  0  0  0  0  0  0  0  0  0  0
   -3.6080    1.5910   17.0670 C   0  0  0  0  0  0  0  0  0  0  0  0
   -2.7200    0.6920   16.5000 C   0  0  0  0  0  0  0  0  0  0  0  0
   -2.4980   -0.5480   17.0850 C   0  0  0  0  0  0  0  0  0  0  0  0
   -4.0990    0.0130   18.8080 C   0  0  0  0  0  0  0  0  0  0  0  0
   -4.8400   -0.4030   19.9130 N   0  0  0  0  0  0  0  0  0  0  0  0
   -5.4610   -1.9720   21.4180 O   0  0  0  0  0  0  0  0  0  0  0  0
   -2.4430   -4.4960   19.8980 F   0  0  0  0  0  0  0  0  0  0  0  0
   -3.4340   -3.9750   21.6870 F   0  0  0  0  0  0  0  0  0  0  0  0
   -4.5670   -4.6620   20.0320 F   0  0  0  0  0  0  0  0  0  0  0  0
   -5.0238    1.9688   18.6607 H   0  0  0  0  0  0  0  0  0  0  0  0
   -3.7587    2.5763   16.6017 H   0  0  0  0  0  0  0  0  0  0  0  0
   -2.1854    0.9626   15.5775 H   0  0  0  0  0  0  0  0  0  0  0  0
   -1.7950   -1.2576   16.6244 H   0  0  0  0  0  0  0  0  0  0  0  0
   -5.5204    0.2578   20.3146 H   0  0  0  0  0  0  0  0  0  0  0  0
  8  7  2  0
  8  9  1  0
  7  4  1  0
  9  1  2  0
  4 10  2  0
  1 10  1  0
  1  2  1  0
 10 11  1  0
  2  6  2  0
  6  5  1  0
  6  3  1  0
 13  5  1  0
 11  3  1  0
 15  5  1  0
  5 14  1  0
  3 12  2  0
  4 16  1  0
  7 17  1  0
  8 18  1  0
  9 19  1  0
 11 20  1  0
A    1
C4
A    2
N2
A    3
C7
A    4
C6
A    5
C9
A    6
C8
A    7
C1
A    8
C2
A    9
C3
A   10
C5
A   11
N1
A   12
O1
A   13
F1
A   14
F2
A   15
F3
M  END
