5WBR_A3Y_A_301
     RDKit          3D

 55 57  0  0  0  0  0  0  0  0999 V2000
  -10.3060   -1.2160   22.7760 N   0  0  0  0  0  0  0  0  0  0  0  0
   -4.8660   -0.4080   19.5700 C   0  0  0  0  0  0  0  0  0  0  0  0
   -7.5640   -0.8230   21.9450 N   0  0  0  0  0  0  0  0  0  0  0  0
   -9.9750   -0.5330   21.5120 C   0  0  0  0  0  0  0  0  0  0  0  0
   -8.6130    0.1560   21.6000 C   0  0  0  0  0  0  0  0  0  0  0  0
   -7.9010   -1.4540   23.2290 C   0  0  0  0  0  0  0  0  0  0  0  0
   -3.9140    2.7320   17.9060 C   0  0  0  0  0  0  0  0  0  0  0  0
   -9.2340   -2.1700   23.1140 C   0  0  0  0  0  0  0  0  0  0  0  0
   -1.7230   -1.8910   18.7920 N   0  0  0  0  0  0  0  0  0  0  0  0
   -2.7780   -1.7390   19.2180 C   0  0  0  0  0  0  0  0  0  0  0  0
   -4.2990   -0.0160   17.2640 C   0  0  0  0  0  0  0  0  0  0  0  0
   -3.9260   -3.9800   20.8260 C   0  0  0  0  0  0  0  0  0  0  0  0
   -5.7600   -2.3650   21.3520 C   0  0  0  0  0  0  0  0  0  0  0  0
   -4.5850   -2.5860   20.6630 C   0  0  0  0  0  0  0  0  0  0  0  0
   -4.0710   -1.6040   19.7830 C   0  0  0  0  0  0  0  0  0  0  0  0
   -6.0400   -0.1720   20.2840 N   0  0  0  0  0  0  0  0  0  0  0  0
   -6.5090   -1.1030   21.2000 C   0  0  0  0  0  0  0  0  0  0  0  0
  -11.6410   -1.8510   22.7210 C   0  0  0  0  0  0  0  0  0  0  0  0
  -12.0290   -2.6790   23.9420 C   0  0  0  0  0  0  0  0  0  0  0  0
  -13.4080   -3.0200   23.9490 O   0  0  0  0  0  0  0  0  0  0  0  0
   -4.5520    0.4590   18.6250 N   0  0  0  0  0  0  0  0  0  0  0  0
   -4.9610    1.8700   18.5880 C   0  0  0  0  0  0  0  0  0  0  0  0
   -3.4320    2.1110   16.5910 C   0  0  0  0  0  0  0  0  0  0  0  0
   -3.0370    0.6370   16.7240 C   0  0  0  0  0  0  0  0  0  0  0  0
   -2.7600   -0.0330   15.3880 C   0  0  0  0  0  0  0  0  0  0  0  0
   -2.3730   -1.3980   15.5330 O   0  0  0  0  0  0  0  0  0  0  0  0
   -4.0120   -4.5060   22.0600 F   0  0  0  0  0  0  0  0  0  0  0  0
   -4.5480   -4.8740   20.0790 F   0  0  0  0  0  0  0  0  0  0  0  0
   -2.6190   -4.0790   20.5130 F   0  0  0  0  0  0  0  0  0  0  0  0
   -9.9514   -1.2734   20.6989 H   0  0  0  0  0  0  0  0  0  0  0  0
  -10.7416    0.2312   21.3162 H   0  0  0  0  0  0  0  0  0  0  0  0
   -8.3754    0.6151   20.6291 H   0  0  0  0  0  0  0  0  0  0  0  0
   -8.6529    0.9278   22.3827 H   0  0  0  0  0  0  0  0  0  0  0  0
   -7.9671   -0.6817   24.0095 H   0  0  0  0  0  0  0  0  0  0  0  0
   -7.1191   -2.1811   23.4934 H   0  0  0  0  0  0  0  0  0  0  0  0
   -4.3493    3.7198   17.6944 H   0  0  0  0  0  0  0  0  0  0  0  0
   -3.0493    2.8163   18.5806 H   0  0  0  0  0  0  0  0  0  0  0  0
   -9.4691   -2.6533   24.0738 H   0  0  0  0  0  0  0  0  0  0  0  0
   -9.1647   -2.9241   22.3161 H   0  0  0  0  0  0  0  0  0  0  0  0
   -4.1702   -1.1084   17.2752 H   0  0  0  0  0  0  0  0  0  0  0  0
   -5.1513    0.2470   16.6203 H   0  0  0  0  0  0  0  0  0  0  0  0
   -6.1451   -3.1437   22.0267 H   0  0  0  0  0  0  0  0  0  0  0  0
  -11.6650   -2.5123   21.8423 H   0  0  0  0  0  0  0  0  0  0  0  0
  -12.3653   -1.0243   22.6761 H   0  0  0  0  0  0  0  0  0  0  0  0
  -11.4360   -3.6055   23.9435 H   0  0  0  0  0  0  0  0  0  0  0  0
  -11.8292   -2.0711   24.8368 H   0  0  0  0  0  0  0  0  0  0  0  0
  -13.7239   -3.0981   24.8840 H   0  0  0  0  0  0  0  0  0  0  0  0
   -5.9086    1.9537   18.0357 H   0  0  0  0  0  0  0  0  0  0  0  0
   -5.0801    2.2234   19.6229 H   0  0  0  0  0  0  0  0  0  0  0  0
   -2.5567    2.6763   16.2385 H   0  0  0  0  0  0  0  0  0  0  0  0
   -4.2712    2.1599   15.8816 H   0  0  0  0  0  0  0  0  0  0  0  0
   -2.1280    0.5448   17.3366 H   0  0  0  0  0  0  0  0  0  0  0  0
   -1.9498    0.5117   14.8811 H   0  0  0  0  0  0  0  0  0  0  0  0
   -3.6907   -0.0092   14.8021 H   0  0  0  0  0  0  0  0  0  0  0  0
   -2.3093   -1.6225   16.4951 H   0  0  0  0  0  0  0  0  0  0  0  0
 18 19  1  0
 18  1  1  0
 19 20  1  0
  4  1  1  0
  4  5  1  0
  1  8  1  0
  5  3  1  0
  8  6  1  0
 27 12  1  0
 29 12  1  0
 13 17  2  0
 13 14  1  0
  3 17  1  0
  3  6  1  0
 12 14  1  0
 12 28  1  0
 17 16  1  0
 14 15  2  0
 16  2  2  0
 15 10  1  0
 15  2  1  0
 10  9  3  0
  2 21  1  0
 21 11  1  0
 21 22  1  0
 11 24  1  0
 26 25  1  0
 22  7  1  0
 24 25  1  0
 24 23  1  0
  7 23  1  0
  4 30  1  0
  4 31  1  0
  5 32  1  0
  5 33  1  0
  6 34  1  0
  6 35  1  0
  7 36  1  0
  7 37  1  0
  8 38  1  0
  8 39  1  0
 11 40  1  0
 11 41  1  0
 13 42  1  0
 18 43  1  0
 18 44  1  0
 19 45  1  0
 19 46  1  0
 20 47  1  0
 22 48  1  0
 22 49  1  0
 23 50  1  0
 23 51  1  0
 24 52  1  0
 25 53  1  0
 25 54  1  0
 26 55  1  0
A    1
N3
A    2
C4
A    3
N2
A    4
C7
A    5
C6
A    6
C9
A    7
C13
A    8
C8
A    9
N5
A   10
C18
A   11
C16
A   12
C19
A   13
C1
A   14
C2
A   15
C3
A   16
N1
A   17
C5
A   18
C10
A   19
C11
A   20
O1
A   21
N4
A   22
C12
A   23
C14
A   24
C15
A   25
C17
A   26
O2
A   27
F1
A   28
F2
A   29
F3
M  END
