5WBZ_A4J_A_301
     RDKit          3D

 45 47  0  0  0  0  0  0  0  0999 V2000
   -7.6260   -1.1790   21.6460 N   0  0  0  0  0  0  0  0  0  0  0  0
   -5.0920    1.6920   19.0180 C   0  0  0  0  0  0  0  0  0  0  0  0
   -5.9500   -0.4780   20.2620 N   0  0  0  0  0  0  0  0  0  0  0  0
   -4.0020   -1.8520   19.7120 C   0  0  0  0  0  0  0  0  0  0  0  0
   -4.7820   -0.6500   19.6350 C   0  0  0  0  0  0  0  0  0  0  0  0
   -5.7760   -2.6700   21.1940 C   0  0  0  0  0  0  0  0  0  0  0  0
   -9.4260    0.0560   22.4680 C   0  0  0  0  0  0  0  0  0  0  0  0
   -4.5770   -2.8580   20.5110 C   0  0  0  0  0  0  0  0  0  0  0  0
   -2.7090   -2.0560   19.1230 C   0  0  0  0  0  0  0  0  0  0  0  0
   -2.7230    2.1820   16.1730 C   0  0  0  0  0  0  0  0  0  0  0  0
   -3.8890    1.6300   16.9800 C   0  0  0  0  0  0  0  0  0  0  0  0
   -4.4100    2.6120   18.0200 C   0  0  0  0  0  0  0  0  0  0  0  0
   -4.3260    0.4430   18.9500 N   0  0  0  0  0  0  0  0  0  0  0  0
   -3.4850    0.3930   17.7600 C   0  0  0  0  0  0  0  0  0  0  0  0
   -6.4360   -1.4480   21.0370 C   0  0  0  0  0  0  0  0  0  0  0  0
   -8.4120   -2.0940   22.4870 C   0  0  0  0  0  0  0  0  0  0  0  0
   -9.7810   -1.4400   22.4140 C   0  0  0  0  0  0  0  0  0  0  0  0
   -8.2620    0.1400   21.4970 C   0  0  0  0  0  0  0  0  0  0  0  0
   -8.9970    0.4370   23.7780 O   0  0  0  0  0  0  0  0  0  0  0  0
  -10.3860   -1.7220   21.1490 O   0  0  0  0  0  0  0  0  0  0  0  0
   -3.9090   -4.2020   20.6380 C   0  0  0  0  0  0  0  0  0  0  0  0
   -4.6670   -5.0980   21.2440 F   0  0  0  0  0  0  0  0  0  0  0  0
   -3.6200   -4.7440   19.4460 F   0  0  0  0  0  0  0  0  0  0  0  0
   -2.7700   -4.1430   21.3580 F   0  0  0  0  0  0  0  0  0  0  0  0
   -1.6730   -2.1820   18.6710 N   0  0  0  0  0  0  0  0  0  0  0  0
   -4.9410    1.2390   16.0870 O   0  0  0  0  0  0  0  0  0  0  0  0
   -5.0508    2.1186   20.0311 H   0  0  0  0  0  0  0  0  0  0  0  0
   -6.1572    1.5421   18.7882 H   0  0  0  0  0  0  0  0  0  0  0  0
   -6.1911   -3.4595   21.8377 H   0  0  0  0  0  0  0  0  0  0  0  0
  -10.2724    0.7148   22.2237 H   0  0  0  0  0  0  0  0  0  0  0  0
   -1.9449    2.5503   16.8578 H   0  0  0  0  0  0  0  0  0  0  0  0
   -2.3063    1.3856   15.5389 H   0  0  0  0  0  0  0  0  0  0  0  0
   -3.0749    3.0091   15.5389 H   0  0  0  0  0  0  0  0  0  0  0  0
   -3.5863    3.1694   18.4899 H   0  0  0  0  0  0  0  0  0  0  0  0
   -5.0754    3.3830   17.6044 H   0  0  0  0  0  0  0  0  0  0  0  0
   -3.6829   -0.5193   17.1782 H   0  0  0  0  0  0  0  0  0  0  0  0
   -2.4113    0.3717   17.9981 H   0  0  0  0  0  0  0  0  0  0  0  0
   -8.4272   -3.1128   22.0726 H   0  0  0  0  0  0  0  0  0  0  0  0
   -8.0224   -2.2236   23.5075 H   0  0  0  0  0  0  0  0  0  0  0  0
  -10.4749   -1.7773   23.1981 H   0  0  0  0  0  0  0  0  0  0  0  0
   -7.5700    0.9485   21.7752 H   0  0  0  0  0  0  0  0  0  0  0  0
   -8.5679    0.3648   20.4646 H   0  0  0  0  0  0  0  0  0  0  0  0
   -9.5373   -0.0428   24.4547 H   0  0  0  0  0  0  0  0  0  0  0  0
  -11.2738   -2.1358   21.2927 H   0  0  0  0  0  0  0  0  0  0  0  0
   -5.7278    0.9466   16.6119 H   0  0  0  0  0  0  0  0  0  0  0  0
 26 11  1  0
 10 11  1  0
 11 14  1  0
 11 12  1  0
 14 13  1  0
 12  2  1  0
 25  9  3  0
 13  2  1  0
 13  5  1  0
  9  4  1  0
 23 21  1  0
  5  4  1  0
  5  3  2  0
  4  8  2  0
  3 15  1  0
  8 21  1  0
  8  6  1  0
 21 22  1  0
 21 24  1  0
 15  6  2  0
 15  1  1  0
 20 17  1  0
 18  1  1  0
 18  7  1  0
  1 16  1  0
 17  7  1  0
 17 16  1  0
  7 19  1  0
  2 27  1  0
  2 28  1  0
  6 29  1  0
  7 30  1  0
 10 31  1  0
 10 32  1  0
 10 33  1  0
 12 34  1  0
 12 35  1  0
 14 36  1  0
 14 37  1  0
 16 38  1  0
 16 39  1  0
 17 40  1  0
 18 41  1  0
 18 42  1  0
 19 43  1  0
 20 44  1  0
 26 45  1  0
A    1
N3
A    2
C4
A    3
N2
A    4
C7
A    5
C6
A    6
C9
A    7
C13
A    8
C8
A    9
C16
A   10
C1
A   11
C2
A   12
C3
A   13
N1
A   14
C5
A   15
C10
A   16
C11
A   17
C12
A   18
C14
A   19
O1
A   20
O2
A   21
C15
A   22
F1
A   23
F2
A   24
F3
A   25
N4
A   26
O3
M  END
