5WCG_A4M_A_504
     RDKit          3D

 75 80  0  0  0  0  0  0  0  0999 V2000
    2.0770   20.6040   31.0390 C   0  0  0  0  0  0  0  0  0  0  0  0
    3.0570   18.9580   30.1370 C   0  0  0  0  0  0  0  0  0  0  0  0
    1.1510   17.2520   30.0450 C   0  0  0  0  0  0  0  0  0  0  0  0
    0.3250   21.9870   31.8840 N   0  0  0  0  0  0  0  0  0  0  0  0
    0.0790   17.2110   28.9240 C   0  0  0  0  0  0  0  0  0  0  0  0
    0.9960   16.2230   26.8270 C   0  0  0  0  0  0  0  0  0  0  0  0
   -0.1830   19.7560   31.1480 N   0  0  0  0  0  0  0  0  0  0  0  0
    2.0970   15.5620   26.1460 C   0  0  0  0  0  0  0  0  0  0  0  0
    3.1030   13.9870   23.1820 C   0  0  0  0  0  0  0  0  0  0  0  0
    4.0210   14.7750   25.4190 C   0  0  0  0  0  0  0  0  0  0  0  0
    5.4680   14.3930   25.2720 C   0  0  0  0  0  0  0  0  0  0  0  0
    3.3090   20.1620   30.5900 N   0  0  0  0  0  0  0  0  0  0  0  0
    6.2270   16.5390   24.4140 C   0  0  0  0  0  0  0  0  0  0  0  0
    6.8200   17.2480   23.2020 C   0  0  0  0  0  0  0  0  0  0  0  0
    8.9450   17.4630   21.9090 C   0  0  0  0  0  0  0  0  0  0  0  0
    1.7540   18.5660   30.2840 N   0  0  0  0  0  0  0  0  0  0  0  0
   -0.0550   16.3640   26.1840 O   0  0  0  0  0  0  0  0  0  0  0  0
    1.1470   16.6660   28.0800 N   0  0  0  0  0  0  0  0  0  0  0  0
    1.9910   16.2550   29.2170 C   0  0  0  0  0  0  0  0  0  0  0  0
    1.1100   19.6380   30.8560 C   0  0  0  0  0  0  0  0  0  0  0  0
   -0.5130   20.9580   31.6550 C   0  0  0  0  0  0  0  0  0  0  0  0
   -1.9560   21.1790   31.9870 C   0  0  0  0  0  0  0  0  0  0  0  0
    1.6400   21.8230   31.5790 C   0  0  0  0  0  0  0  0  0  0  0  0
    2.4550   22.8600   31.7980 N   0  0  0  0  0  0  0  0  0  0  0  0
    3.4490   15.3890   26.5020 C   0  0  0  0  0  0  0  0  0  0  0  0
    3.0400   14.5910   24.5050 N   0  0  0  0  0  0  0  0  0  0  0  0
    1.8460   15.0650   24.9300 N   0  0  0  0  0  0  0  0  0  0  0  0
    6.1050   15.0970   24.1520 N   0  0  0  0  0  0  0  0  0  0  0  0
    7.4450   14.5630   23.8780 C   0  0  0  0  0  0  0  0  0  0  0  0
    8.0700   15.2650   22.6800 C   0  0  0  0  0  0  0  0  0  0  0  0
    8.1640   16.7170   22.9190 N   0  0  0  0  0  0  0  0  0  0  0  0
    9.1230   18.9770   22.1690 C   0  0  0  0  0  0  0  0  0  0  0  0
   10.3960   19.6140   21.6280 C   0  0  0  0  0  0  0  0  0  0  0  0
   10.4310   19.8740   20.1260 C   0  0  0  0  0  0  0  0  0  0  0  0
   10.1630   18.6340   19.2700 C   0  0  0  0  0  0  0  0  0  0  0  0
    8.7670   18.0990   19.3190 C   0  0  0  0  0  0  0  0  0  0  0  0
    8.4030   17.1830   20.4790 C   0  0  0  0  0  0  0  0  0  0  0  0
    3.8258   18.3185   29.6787 H   0  0  0  0  0  0  0  0  0  0  0  0
    0.8978   17.0369   31.0936 H   0  0  0  0  0  0  0  0  0  0  0  0
   -0.3068   18.1927   28.6118 H   0  0  0  0  0  0  0  0  0  0  0  0
   -0.8938   16.7129   29.0487 H   0  0  0  0  0  0  0  0  0  0  0  0
    3.2166   12.8974   23.2814 H   0  0  0  0  0  0  0  0  0  0  0  0
    2.1767   14.2104   22.6324 H   0  0  0  0  0  0  0  0  0  0  0  0
    3.9633   14.3968   22.6324 H   0  0  0  0  0  0  0  0  0  0  0  0
    5.5343   13.3092   25.0957 H   0  0  0  0  0  0  0  0  0  0  0  0
    5.9925   14.6751   26.1968 H   0  0  0  0  0  0  0  0  0  0  0  0
    6.8828   16.6958   25.2831 H   0  0  0  0  0  0  0  0  0  0  0  0
    5.2278   16.9518   24.6169 H   0  0  0  0  0  0  0  0  0  0  0  0
    6.8897   18.3263   23.4081 H   0  0  0  0  0  0  0  0  0  0  0  0
    6.1720   17.0775   22.3296 H   0  0  0  0  0  0  0  0  0  0  0  0
    9.9674   17.0678   22.0011 H   0  0  0  0  0  0  0  0  0  0  0  0
    1.8908   15.2009   29.5150 H   0  0  0  0  0  0  0  0  0  0  0  0
    3.0901   16.2859   29.1843 H   0  0  0  0  0  0  0  0  0  0  0  0
   -2.0821   21.1983   33.0796 H   0  0  0  0  0  0  0  0  0  0  0  0
   -2.2871   22.1383   31.5627 H   0  0  0  0  0  0  0  0  0  0  0  0
   -2.5591   20.3627   31.5627 H   0  0  0  0  0  0  0  0  0  0  0  0
    2.6786   23.1446   32.7623 H   0  0  0  0  0  0  0  0  0  0  0  0
    2.8592   23.3743   31.0024 H   0  0  0  0  0  0  0  0  0  0  0  0
    3.9379   15.6824   27.4427 H   0  0  0  0  0  0  0  0  0  0  0  0
    7.3682   13.4864   23.6659 H   0  0  0  0  0  0  0  0  0  0  0  0
    8.0807   14.7342   24.7592 H   0  0  0  0  0  0  0  0  0  0  0  0
    7.4482   15.0847   21.7907 H   0  0  0  0  0  0  0  0  0  0  0  0
    9.0829   14.8654   22.5241 H   0  0  0  0  0  0  0  0  0  0  0  0
    9.1077   19.1332   23.2577 H   0  0  0  0  0  0  0  0  0  0  0  0
    8.2999   19.4645   21.6260 H   0  0  0  0  0  0  0  0  0  0  0  0
   11.2357   18.9471   21.8731 H   0  0  0  0  0  0  0  0  0  0  0  0
   10.4536   20.6057   22.1006 H   0  0  0  0  0  0  0  0  0  0  0  0
   11.4260   20.2644   19.8663 H   0  0  0  0  0  0  0  0  0  0  0  0
    9.6237   20.5891   19.9093 H   0  0  0  0  0  0  0  0  0  0  0  0
   10.8419   17.8373   19.6080 H   0  0  0  0  0  0  0  0  0  0  0  0
   10.3262   18.9486   18.2287 H   0  0  0  0  0  0  0  0  0  0  0  0
    8.0852   18.9615   19.3544 H   0  0  0  0  0  0  0  0  0  0  0  0
    8.6797   17.4647   18.4245 H   0  0  0  0  0  0  0  0  0  0  0  0
    7.3054   17.1886   20.5519 H   0  0  0  0  0  0  0  0  0  0  0  0
    8.8958   16.2372   20.2098 H   0  0  0  0  0  0  0  0  0  0  0  0
 35 36  1  0
 35 34  1  0
 36 37  1  0
 34 33  1  0
 37 15  1  0
 33 32  1  0
 15 32  1  0
 15 31  1  0
 30 31  1  0
 30 29  1  0
 31 14  1  0
  9 26  1  0
 14 13  1  0
 29 28  1  0
 28 13  1  0
 28 11  1  0
 26 27  1  0
 26 10  1  0
 27  8  2  0
 11 10  1  0
 10 25  2  0
  8 25  1  0
  8  6  1  0
 17  6  2  0
  6 18  1  0
 18  5  1  0
 18 19  1  0
  5  3  1  0
 19  3  1  0
  3 16  1  0
  2 16  1  0
  2 12  2  0
 16 20  1  0
 12  1  1  0
 20  1  2  0
 20  7  1  0
  1 23  1  0
  7 21  2  0
 23 24  1  0
 23  4  2  0
 21  4  1  0
 21 22  1  0
  2 38  1  0
  3 39  1  0
  5 40  1  0
  5 41  1  0
  9 42  1  0
  9 43  1  0
  9 44  1  0
 11 45  1  0
 11 46  1  0
 13 47  1  0
 13 48  1  0
 14 49  1  0
 14 50  1  0
 15 51  1  0
 19 52  1  0
 19 53  1  0
 22 54  1  0
 22 55  1  0
 22 56  1  0
 24 57  1  0
 24 58  1  0
 25 59  1  0
 29 60  1  0
 29 61  1  0
 30 62  1  0
 30 63  1  0
 32 64  1  0
 32 65  1  0
 33 66  1  0
 33 67  1  0
 34 68  1  0
 34 69  1  0
 35 70  1  0
 35 71  1  0
 36 72  1  0
 36 73  1  0
 37 74  1  0
 37 75  1  0
A    1
C4
A    2
C5
A    3
C6
A    4
N1
A    5
C7
A    6
C8
A    7
N2
A    8
C9
A    9
C10
A   10
C11
A   11
C12
A   12
N3
A   13
C13
A   14
C14
A   15
C15
A   16
N4
A   17
O
A   18
N5
A   19
C25
A   20
C3
A   21
C1
A   22
C2
A   23
C
A   24
N
A   25
C24
A   26
N7
A   27
N6
A   28
N8
A   29
C23
A   30
C22
A   31
N9
A   32
C21
A   33
C20
A   34
C19
A   35
C18
A   36
C17
A   37
C16
M  END
