4DEN_2M4_A_201
     RDKit          3D

 45 46  0  0  0  0  0  0  0  0999 V2000
   21.0450    6.6890    2.7210 C   0  0  0  0  0  0  0  0  0  0  0  0
   22.0460    7.1200    3.6840 O   0  0  0  0  0  0  0  0  0  0  0  0
   20.4520    7.8840    1.9460 C   0  0  0  0  0  0  0  0  0  0  0  0
   21.3920    8.1210    0.8860 O   0  0  0  0  0  0  0  0  0  0  0  0
   21.1180    9.3090    0.0820 C   0  0  0  0  0  0  0  0  0  0  0  0
   20.9760   10.5300    0.8600 O   0  0  0  0  0  0  0  0  0  0  0  0
   19.8390    8.9800   -0.6790 C   0  0  0  0  0  0  0  0  0  0  0  0
   19.9840    7.7400   -1.3950 O   0  0  0  0  0  0  0  0  0  0  0  0
   20.9330    7.8450   -2.4830 C   0  0  0  0  0  0  0  0  0  0  0  0
   22.2470    7.4570   -2.0340 O   0  0  0  0  0  0  0  0  0  0  0  0
   22.4920    6.2130   -1.3850 C   0  0  0  0  0  0  0  0  0  0  0  0
   24.9120    6.2480   -1.9920 O   0  0  0  0  0  0  0  0  0  0  0  0
   23.9580    6.0730   -0.9270 C   0  0  0  0  0  0  0  0  0  0  0  0
   22.3850    3.8900   -1.9230 O   0  0  0  0  0  0  0  0  0  0  0  0
   22.2730    5.2060   -2.4750 C   0  0  0  0  0  0  0  0  0  0  0  0
   20.6990    4.5780   -4.1880 O   0  0  0  0  0  0  0  0  0  0  0  0
   20.8960    5.4640   -3.1130 C   0  0  0  0  0  0  0  0  0  0  0  0
   21.4220    7.2240   -4.7110 O   0  0  0  0  0  0  0  0  0  0  0  0
   20.5540    6.9080   -3.6170 C   0  0  0  0  0  0  0  0  0  0  0  0
   17.5520    8.4670   -0.4380 O   0  0  0  0  0  0  0  0  0  0  0  0
   18.7050    8.7930    0.3320 C   0  0  0  0  0  0  0  0  0  0  0  0
   18.1060    7.5440    2.4250 O   0  0  0  0  0  0  0  0  0  0  0  0
   19.0570    7.6720    1.3440 C   0  0  0  0  0  0  0  0  0  0  0  0
   21.5125    5.9961    2.0059 H   0  0  0  0  0  0  0  0  0  0  0  0
   20.2293    6.1955    3.2697 H   0  0  0  0  0  0  0  0  0  0  0  0
   21.7055    6.9734    4.6020 H   0  0  0  0  0  0  0  0  0  0  0  0
   20.3075    8.7190    2.6473 H   0  0  0  0  0  0  0  0  0  0  0  0
   21.9676    9.5245   -0.5827 H   0  0  0  0  0  0  0  0  0  0  0  0
   21.0015   10.3111    1.8252 H   0  0  0  0  0  0  0  0  0  0  0  0
   19.6271    9.7974   -1.3839 H   0  0  0  0  0  0  0  0  0  0  0  0
   20.9262    8.8895   -2.8279 H   0  0  0  0  0  0  0  0  0  0  0  0
   21.8558    6.1011   -0.4946 H   0  0  0  0  0  0  0  0  0  0  0  0
   25.8093    6.4126   -1.6075 H   0  0  0  0  0  0  0  0  0  0  0  0
   24.1554    6.8310   -0.1547 H   0  0  0  0  0  0  0  0  0  0  0  0
   24.0817    5.0482   -0.5470 H   0  0  0  0  0  0  0  0  0  0  0  0
   22.3803    3.9453   -0.9346 H   0  0  0  0  0  0  0  0  0  0  0  0
   23.0324    5.2971   -3.2656 H   0  0  0  0  0  0  0  0  0  0  0  0
   20.4980    3.6740   -3.8380 H   0  0  0  0  0  0  0  0  0  0  0  0
   20.2164    5.3068   -2.2624 H   0  0  0  0  0  0  0  0  0  0  0  0
   22.2922    7.5408   -4.3610 H   0  0  0  0  0  0  0  0  0  0  0  0
   19.4986    6.9904   -3.9158 H   0  0  0  0  0  0  0  0  0  0  0  0
   16.7993    8.2542    0.1688 H   0  0  0  0  0  0  0  0  0  0  0  0
   18.5321    9.6992    0.9311 H   0  0  0  0  0  0  0  0  0  0  0  0
   18.5807    7.6079    3.2914 H   0  0  0  0  0  0  0  0  0  0  0  0
   19.0276    6.7422    0.7570 H   0  0  0  0  0  0  0  0  0  0  0  0
  1  2  1  0
  1  3  1  0
  3  4  1  0
  3 23  1  0
  4  5  1  0
  5  6  1  0
  5  7  1  0
  7  8  1  0
  7 21  1  0
  8  9  1  0
  9 10  1  0
  9 19  1  0
 10 11  1  0
 11 13  1  0
 11 15  1  0
 12 13  1  0
 14 15  1  0
 15 17  1  0
 16 17  1  0
 17 19  1  0
 18 19  1  0
 20 21  1  0
 21 23  1  0
 22 23  1  0
  1 24  1  0
  1 25  1  0
  2 26  1  0
  3 27  1  0
  5 28  1  0
  6 29  1  0
  7 30  1  0
  9 31  1  0
 11 32  1  0
 12 33  1  0
 13 34  1  0
 13 35  1  0
 14 36  1  0
 15 37  1  0
 16 38  1  0
 17 39  1  0
 18 40  1  0
 19 41  1  0
 20 42  1  0
 21 43  1  0
 22 44  1  0
 23 45  1  0
A    1
C1
A    2
O1
A    3
C2
A    4
O2
A    5
C3
A    6
O3
A    7
C4
A    8
O4
A    9
C5
A   10
O5
A   11
C6
A   12
O6
A   13
C7
A   14
O7
A   15
C8
A   16
O8
A   17
C9
A   18
O9
A   19
C10
A   20
O10
A   21
C11
A   22
O11
A   23
C12
M  END
