5WHC_AJJ_A_601
     RDKit          3D

 36 38  0  0  0  0  0  0  0  0999 V2000
   32.8280    3.0390   -3.3890 C   0  0  0  0  0  0  0  0  0  0  0  0
   32.6180    2.8790   -4.8920 C   0  0  0  0  0  0  0  0  0  0  0  0
   31.0620    4.7710   -2.8830 C   0  0  0  0  0  0  0  0  0  0  0  0
   31.0880    5.6780   -1.8600 N   0  0  0  0  0  0  0  0  0  0  0  0
   30.5890    6.7430   -2.4050 C   0  0  0  0  0  0  0  0  0  0  0  0
   30.3350    8.0450   -1.7880 C   0  0  0  0  0  0  0  0  0  0  0  0
   30.5890    5.2280   -4.0030 N   0  0  0  0  0  0  0  0  0  0  0  0
   29.7690    9.0770   -2.5270 C   0  0  0  0  0  0  0  0  0  0  0  0
   29.4890   10.2970   -1.9400 C   0  0  0  0  0  0  0  0  0  0  0  0
   29.7740   10.5020   -0.5990 C   0  0  0  0  0  0  0  0  0  0  0  0
   30.3510    9.4850    0.1460 C   0  0  0  0  0  0  0  0  0  0  0  0
   30.6280    8.2670   -0.4480 C   0  0  0  0  0  0  0  0  0  0  0  0
   31.6330    1.8380   -5.1800 N   0  0  0  0  0  0  0  0  0  0  0  0
   32.0760    0.5360   -4.6610 C   0  0  0  0  0  0  0  0  0  0  0  0
   30.2600    6.5710   -3.6940 O   0  0  0  0  0  0  0  0  0  0  0  0
   30.3440    2.2150   -4.6060 C   0  0  0  0  0  0  0  0  0  0  0  0
   30.4340    2.3460   -3.0900 C   0  0  0  0  0  0  0  0  0  0  0  0
   31.5070    3.3610   -2.6810 C   0  0  0  0  0  0  0  0  0  0  0  0
   29.4700   11.6960   -0.0100 O   0  0  0  0  0  0  0  0  0  0  0  0
   33.5407    3.8577   -3.2105 H   0  0  0  0  0  0  0  0  0  0  0  0
   33.2195    2.0928   -2.9871 H   0  0  0  0  0  0  0  0  0  0  0  0
   32.2636    3.8335   -5.3084 H   0  0  0  0  0  0  0  0  0  0  0  0
   33.5756    2.5885   -5.3487 H   0  0  0  0  0  0  0  0  0  0  0  0
   29.5411    8.9213   -3.5918 H   0  0  0  0  0  0  0  0  0  0  0  0
   29.0402   11.1047   -2.5369 H   0  0  0  0  0  0  0  0  0  0  0  0
   30.5881    9.6465    1.2079 H   0  0  0  0  0  0  0  0  0  0  0  0
   31.0861    7.4639    0.1480 H   0  0  0  0  0  0  0  0  0  0  0  0
   32.0686    0.5579   -3.5612 H   0  0  0  0  0  0  0  0  0  0  0  0
   31.3952   -0.2514   -5.0167 H   0  0  0  0  0  0  0  0  0  0  0  0
   33.0957    0.3272   -5.0167 H   0  0  0  0  0  0  0  0  0  0  0  0
   29.6003    1.4440   -4.8562 H   0  0  0  0  0  0  0  0  0  0  0  0
   30.0478    3.1888   -5.0232 H   0  0  0  0  0  0  0  0  0  0  0  0
   30.6860    1.3654   -2.6600 H   0  0  0  0  0  0  0  0  0  0  0  0
   29.4621    2.6980   -2.7138 H   0  0  0  0  0  0  0  0  0  0  0  0
   31.6782    3.2701   -1.5982 H   0  0  0  0  0  0  0  0  0  0  0  0
   29.4510   11.7704    0.9770 H   0  0  0  0  0  0  0  0  0  0  0  0
  9  8  2  0
  9 10  1  0
 19 10  1  0
  8  6  1  0
 10 11  2  0
  4  5  2  0
  4  3  1  0
  6  5  1  0
  6 12  2  0
 11 12  1  0
  5 15  1  0
 18  3  1  0
 18 17  1  0
 18  1  1  0
  3  7  2  0
 17 16  1  0
  1  2  1  0
 15  7  1  0
 16 13  1  0
  2 13  1  0
 13 14  1  0
  1 20  1  0
  1 21  1  0
  2 22  1  0
  2 23  1  0
  8 24  1  0
  9 25  1  0
 11 26  1  0
 12 27  1  0
 14 28  1  0
 14 29  1  0
 14 30  1  0
 16 31  1  0
 16 32  1  0
 17 33  1  0
 17 34  1  0
 18 35  1  0
 19 36  1  0
A    1
C4
A    2
C5
A    3
C6
A    4
N1
A    5
C7
A    6
C8
A    7
N2
A    8
C9
A    9
C10
A   10
C11
A   11
C12
A   12
C13
A   13
N
A   14
C
A   15
O
A   16
C1
A   17
C2
A   18
C3
A   19
O1
M  END
