5WIU_AQD_A_1201
     RDKit          3D

 53 55  0  0  0  0  0  0  0  0999 V2000
  -16.7650   11.7930  -16.3440 C   0  0  0  0  0  0  0  0  0  0  0  0
  -16.4790   13.1840  -16.0850 O   0  0  0  0  0  0  0  0  0  0  0  0
  -15.6150   13.4490  -14.9940 C   0  0  0  0  0  0  0  0  0  0  0  0
  -15.2310   12.4340  -14.0980 C   0  0  0  0  0  0  0  0  0  0  0  0
  -14.3760   12.7630  -13.0310 C   0  0  0  0  0  0  0  0  0  0  0  0
  -13.9600   11.7630  -12.0960 N   0  0  0  0  0  0  0  0  0  0  0  0
  -14.6510   10.4890  -12.0850 C   0  0  0  0  0  0  0  0  0  0  0  0
  -13.8910   14.0710  -12.8870 C   0  0  0  0  0  0  0  0  0  0  0  0
  -12.7770   14.4900  -11.5930 Cl  0  0  0  0  0  0  0  0  0  0  0  0
  -14.2650   15.0580  -13.7800 C   0  0  0  0  0  0  0  0  0  0  0  0
  -15.1180   14.7480  -14.8340 C   0  0  0  0  0  0  0  0  0  0  0  0
  -15.5260   15.9040  -15.7440 C   0  0  0  0  0  0  0  0  0  0  0  0
  -14.9290   16.9500  -15.6420 O   0  0  0  0  0  0  0  0  0  0  0  0
  -16.6380   15.8090  -16.6480 N   0  0  0  0  0  0  0  0  0  0  0  0
  -16.9970   16.9590  -17.4690 C   0  0  0  0  0  0  0  0  0  0  0  0
  -17.4160   16.5780  -18.8170 C   0  0  0  0  0  0  0  0  0  0  0  0
  -16.6990   15.2900  -19.3200 C   0  0  0  0  0  0  0  0  0  0  0  0
  -18.1660   17.6530  -16.7970 C   0  0  0  0  0  0  0  0  0  0  0  0
  -19.3490   17.3900  -17.8810 C   0  0  0  0  0  0  0  0  0  0  0  0
  -18.7950   16.3550  -18.7730 N   0  0  0  0  0  0  0  0  0  0  0  0
  -19.3310   16.4010  -20.0980 C   0  0  0  0  0  0  0  0  0  0  0  0
  -20.8520   16.7580  -20.1380 C   0  0  0  0  0  0  0  0  0  0  0  0
  -21.2590   18.0010  -20.6320 C   0  0  0  0  0  0  0  0  0  0  0  0
  -22.6160   18.3350  -20.6650 C   0  0  0  0  0  0  0  0  0  0  0  0
  -23.5650   17.4210  -20.2100 C   0  0  0  0  0  0  0  0  0  0  0  0
  -23.1660   16.1840  -19.7210 C   0  0  0  0  0  0  0  0  0  0  0  0
  -21.8060   15.8470  -19.6820 C   0  0  0  0  0  0  0  0  0  0  0  0
  -16.8751   11.2574  -15.3895 H   0  0  0  0  0  0  0  0  0  0  0  0
  -17.6987   11.7117  -16.9199 H   0  0  0  0  0  0  0  0  0  0  0  0
  -15.9392   11.3499  -16.9199 H   0  0  0  0  0  0  0  0  0  0  0  0
  -15.5925   11.4035  -14.2297 H   0  0  0  0  0  0  0  0  0  0  0  0
  -13.1843   11.9450  -11.4432 H   0  0  0  0  0  0  0  0  0  0  0  0
  -14.8221   10.1736  -11.0452 H   0  0  0  0  0  0  0  0  0  0  0  0
  -15.6172   10.5914  -12.6007 H   0  0  0  0  0  0  0  0  0  0  0  0
  -14.0382    9.7350  -12.6007 H   0  0  0  0  0  0  0  0  0  0  0  0
  -13.8894   16.0846  -13.6574 H   0  0  0  0  0  0  0  0  0  0  0  0
  -17.1780   14.9345  -16.7158 H   0  0  0  0  0  0  0  0  0  0  0  0
  -16.1115   17.6050  -17.5611 H   0  0  0  0  0  0  0  0  0  0  0  0
  -17.1498   17.3838  -19.5169 H   0  0  0  0  0  0  0  0  0  0  0  0
  -16.3673   14.6942  -18.4569 H   0  0  0  0  0  0  0  0  0  0  0  0
  -17.3964   14.6963  -19.9292 H   0  0  0  0  0  0  0  0  0  0  0  0
  -15.8269   15.5700  -19.9292 H   0  0  0  0  0  0  0  0  0  0  0  0
  -17.9740   18.7276  -16.6615 H   0  0  0  0  0  0  0  0  0  0  0  0
  -18.3895   17.2861  -15.7844 H   0  0  0  0  0  0  0  0  0  0  0  0
  -19.5759   18.3085  -18.4421 H   0  0  0  0  0  0  0  0  0  0  0  0
  -20.2930   17.0798  -17.4091 H   0  0  0  0  0  0  0  0  0  0  0  0
  -19.1915   15.4151  -20.5654 H   0  0  0  0  0  0  0  0  0  0  0  0
  -18.7957   17.1956  -20.6384 H   0  0  0  0  0  0  0  0  0  0  0  0
  -20.5089   18.7185  -20.9959 H   0  0  0  0  0  0  0  0  0  0  0  0
  -22.9338   19.3157  -21.0487 H   0  0  0  0  0  0  0  0  0  0  0  0
  -24.6336   17.6804  -20.2384 H   0  0  0  0  0  0  0  0  0  0  0  0
  -23.9193   15.4667  -19.3633 H   0  0  0  0  0  0  0  0  0  0  0  0
  -21.4915   14.8673  -19.2931 H   0  0  0  0  0  0  0  0  0  0  0  0
 24 23  2  0
 24 25  1  0
 23 22  1  0
 25 26  2  0
 22 21  1  0
 22 27  2  0
 21 20  1  0
 26 27  1  0
 17 16  1  0
 16 20  1  0
 16 15  1  0
 20 19  1  0
 19 18  1  0
 15 18  1  0
 15 14  1  0
 14 12  1  0
  1  2  1  0
  2  3  1  0
 12 13  2  0
 12 11  1  0
  3 11  2  0
  3  4  1  0
 11 10  1  0
  4  5  2  0
 10  8  2  0
  5  8  1  0
  5  6  1  0
  8  9  1  0
  6  7  1  0
  1 28  1  0
  1 29  1  0
  1 30  1  0
  4 31  1  0
  6 32  1  0
  7 33  1  0
  7 34  1  0
  7 35  1  0
 10 36  1  0
 14 37  1  0
 15 38  1  0
 16 39  1  0
 17 40  1  0
 17 41  1  0
 17 42  1  0
 18 43  1  0
 18 44  1  0
 19 45  1  0
 19 46  1  0
 21 47  1  0
 21 48  1  0
 23 49  1  0
 24 50  1  0
 25 51  1  0
 26 52  1  0
 27 53  1  0
A    1
CAB
A    2
OAR
A    3
CAW
A    4
CAK
A    5
CAV
A    6
NAP
A    7
CAA
A    8
CAU
A    9
CLA
A   10
CAL
A   11
CAX
A   12
CAS
A   13
OAD
A   14
NAQ
A   15
CAZ
A   16
CAY
A   17
CAC
A   18
CAM
A   19
CAN
A   20
NBA
A   21
CAO
A   22
CAT
A   23
CAI
A   24
CAG
A   25
CAF
A   26
CAH
A   27
CAJ
M  END
