1NOO_CAH_A_422
     RDKit          3D

 28 29  0  0  0  0  0  0  0  0999 V2000
   46.7870   44.7850   14.6490 C   0  0  0  0  0  0  0  0  0  0  0  0
   45.2920   44.7590   14.3990 C   0  0  0  0  0  0  0  0  0  0  0  0
   44.4590   44.8300   15.2980 O   0  0  0  0  0  0  0  0  0  0  0  0
   44.9410   44.5570   12.9600 C   0  0  0  0  0  0  0  0  0  0  0  0
   46.3830   44.5820   12.4120 C   0  0  0  0  0  0  0  0  0  0  0  0
   46.8760   46.0430   12.6450 C   0  0  0  0  0  0  0  0  0  0  0  0
   47.9930   46.3050   11.7900 O   0  0  0  0  0  0  0  0  0  0  0  0
   47.3130   46.1400   14.1350 C   0  0  0  0  0  0  0  0  0  0  0  0
   47.1570   43.8310   13.5000 C   0  0  0  0  0  0  0  0  0  0  0  0
   46.5960   42.4170   13.6920 C   0  0  0  0  0  0  0  0  0  0  0  0
   48.6760   43.8540   13.2350 C   0  0  0  0  0  0  0  0  0  0  0  0
   47.1520   44.2760   16.0470 C   0  0  0  0  0  0  0  0  0  0  0  0
   44.4386   43.5951   12.7800 H   0  0  0  0  0  0  0  0  0  0  0  0
   44.2335   45.2748   12.5195 H   0  0  0  0  0  0  0  0  0  0  0  0
   46.4793   44.2160   11.3791 H   0  0  0  0  0  0  0  0  0  0  0  0
   46.0863   46.7755   12.4217 H   0  0  0  0  0  0  0  0  0  0  0  0
   48.7936   46.4928   12.3412 H   0  0  0  0  0  0  0  0  0  0  0  0
   46.8335   46.9867   14.6481 H   0  0  0  0  0  0  0  0  0  0  0  0
   48.3872   46.3142   14.2953 H   0  0  0  0  0  0  0  0  0  0  0  0
   46.5097   42.1996   14.7668 H   0  0  0  0  0  0  0  0  0  0  0  0
   45.6031   42.3497   13.2235 H   0  0  0  0  0  0  0  0  0  0  0  0
   47.2727   41.6873   13.2235 H   0  0  0  0  0  0  0  0  0  0  0  0
   49.2154   43.8622   14.1937 H   0  0  0  0  0  0  0  0  0  0  0  0
   48.9617   42.9601   12.6612 H   0  0  0  0  0  0  0  0  0  0  0  0
   48.9345   44.7562   12.6612 H   0  0  0  0  0  0  0  0  0  0  0  0
   46.6878   44.9233   16.8056 H   0  0  0  0  0  0  0  0  0  0  0  0
   46.7853   43.2462   16.1696 H   0  0  0  0  0  0  0  0  0  0  0  0
   48.2450   44.2930   16.1696 H   0  0  0  0  0  0  0  0  0  0  0  0
  1  2  1  0
  1  8  1  0
  1  9  1  0
  1 12  1  0
  2  3  2  0
  2  4  1  0
  4  5  1  0
  5  6  1  0
  5  9  1  0
  6  7  1  0
  6  8  1  0
  9 10  1  0
  9 11  1  0
  4 13  1  0
  4 14  1  0
  5 15  1  0
  6 16  1  0
  7 17  1  0
  8 18  1  0
  8 19  1  0
 10 20  1  0
 10 21  1  0
 10 22  1  0
 11 23  1  0
 11 24  1  0
 11 25  1  0
 12 26  1  0
 12 27  1  0
 12 28  1  0
A    1
C1
A    2
C2
A    3
O2
A    4
C3
A    5
C4
A    6
C5
A    7
O5
A    8
C6
A    9
C7
A   10
C8
A   11
C9
A   12
C10
M  END
