5WKI_D3D_D_308
     RDKit          3D

122121  0  0  0  0  0  0  0  0999 V2000
   -6.1810  -20.1340  117.8310 P   0  0  0  0  0  0  0  0  0  0  0  0
  -18.9230  -15.8750  117.2500 C   0  0  0  0  0  0  0  0  0  0  0  0
  -18.1930  -17.1260  116.7770 C   0  0  0  0  0  0  0  0  0  0  0  0
  -18.9070  -18.3580  117.3380 C   0  0  0  0  0  0  0  0  0  0  0  0
  -18.5060  -19.5800  116.5080 C   0  0  0  0  0  0  0  0  0  0  0  0
  -17.6640  -20.5010  117.3780 C   0  0  0  0  0  0  0  0  0  0  0  0
  -16.9730  -21.5200  116.4760 C   0  0  0  0  0  0  0  0  0  0  0  0
  -16.9400  -22.8780  117.1860 C   0  0  0  0  0  0  0  0  0  0  0  0
  -15.8260  -22.8900  118.2430 C   0  0  0  0  0  0  0  0  0  0  0  0
  -15.2930  -24.3220  118.4290 C   0  0  0  0  0  0  0  0  0  0  0  0
  -13.7700  -24.3320  118.5820 C   0  0  0  0  0  0  0  0  0  0  0  0
  -13.1110  -25.2230  117.5190 C   0  0  0  0  0  0  0  0  0  0  0  0
  -11.8690  -24.5090  116.9600 C   0  0  0  0  0  0  0  0  0  0  0  0
  -10.7470  -25.5150  116.6480 C   0  0  0  0  0  0  0  0  0  0  0  0
   -9.4020  -24.7830  116.7080 C   0  0  0  0  0  0  0  0  0  0  0  0
   -9.2030  -23.8590  115.4980 C   0  0  0  0  0  0  0  0  0  0  0  0
   -7.8890  -22.2020  114.4300 C   0  0  0  0  0  0  0  0  0  0  0  0
   -8.6210  -20.9220  114.9100 C   0  0  0  0  0  0  0  0  0  0  0  0
   -7.6150  -20.0250  115.6360 C   0  0  0  0  0  0  0  0  0  0  0  0
   -4.1780  -21.3420  117.1990 C   0  0  0  0  0  0  0  0  0  0  0  0
   -3.8780  -22.7680  116.7270 C   0  0  0  0  0  0  0  0  0  0  0  0
   -4.8000  -23.7720  117.3980 C   0  0  0  0  0  0  0  0  0  0  0  0
  -10.0550  -20.7750  113.0190 C   0  0  0  0  0  0  0  0  0  0  0  0
  -11.5540  -20.4390  113.1010 C   0  0  0  0  0  0  0  0  0  0  0  0
  -12.2420  -21.1000  111.9000 C   0  0  0  0  0  0  0  0  0  0  0  0
  -13.7410  -20.8730  112.0340 C   0  0  0  0  0  0  0  0  0  0  0  0
  -14.5300  -21.6930  110.9860 C   0  0  0  0  0  0  0  0  0  0  0  0
  -15.0960  -20.7730  109.8920 C   0  0  0  0  0  0  0  0  0  0  0  0
  -16.6030  -20.5440  110.0740 C   0  0  0  0  0  0  0  0  0  0  0  0
  -16.9830  -19.1920  109.4370 C   0  0  0  0  0  0  0  0  0  0  0  0
  -17.1200  -19.3880  107.9290 C   0  0  0  0  0  0  0  0  0  0  0  0
  -17.6980  -18.4410  107.2090 C   0  0  0  0  0  0  0  0  0  0  0  0
  -17.8390  -18.6550  105.7010 C   0  0  0  0  0  0  0  0  0  0  0  0
  -16.5960  -18.1440  104.9660 C   0  0  0  0  0  0  0  0  0  0  0  0
  -16.7310  -18.5810  103.5110 C   0  0  0  0  0  0  0  0  0  0  0  0
   -9.6640  -21.5400  112.1980 O   0  0  0  0  0  0  0  0  0  0  0  0
  -15.4830  -18.1560  102.7290 C   0  0  0  0  0  0  0  0  0  0  0  0
  -15.6320  -18.5930  101.2590 C   0  0  0  0  0  0  0  0  0  0  0  0
  -15.0360  -19.9900  101.0480 C   0  0  0  0  0  0  0  0  0  0  0  0
   -9.1440  -20.1230  113.8730 O   0  0  0  0  0  0  0  0  0  0  0  0
   -6.8350  -20.8310  116.4730 O   0  0  0  0  0  0  0  0  0  0  0  0
   -5.5000  -18.8040  117.5270 O   0  0  0  0  0  0  0  0  0  0  0  0
   -5.0670  -21.2460  118.2800 O   0  0  0  0  0  0  0  0  0  0  0  0
   -4.5620  -25.0260  116.8450 O   0  0  0  0  0  0  0  0  0  0  0  0
   -4.0810  -22.8410  115.3370 O   0  0  0  0  0  0  0  0  0  0  0  0
   -7.2470  -20.0340  118.9180 O   0  0  0  0  0  0  0  0  0  0  0  0
   -7.9350  -23.2360  115.4030 O   0  0  0  0  0  0  0  0  0  0  0  0
  -10.0650  -23.6650  114.6820 O   0  0  0  0  0  0  0  0  0  0  0  0
  -18.1570  -14.6570  116.7370 C   0  0  0  0  0  0  0  0  0  0  0  0
  -19.9475  -15.8671  116.8496 H   0  0  0  0  0  0  0  0  0  0  0  0
  -18.9765  -15.8570  118.3486 H   0  0  0  0  0  0  0  0  0  0  0  0
  -17.1538  -17.1055  117.1370 H   0  0  0  0  0  0  0  0  0  0  0  0
  -18.1920  -17.1639  115.6777 H   0  0  0  0  0  0  0  0  0  0  0  0
  -19.9958  -18.2128  117.2802 H   0  0  0  0  0  0  0  0  0  0  0  0
  -18.6212  -18.5097  118.3893 H   0  0  0  0  0  0  0  0  0  0  0  0
  -19.4081  -20.1112  116.1704 H   0  0  0  0  0  0  0  0  0  0  0  0
  -17.9289  -19.2634  115.6267 H   0  0  0  0  0  0  0  0  0  0  0  0
  -16.9089  -19.9123  117.9194 H   0  0  0  0  0  0  0  0  0  0  0  0
  -18.3030  -21.0170  118.1097 H   0  0  0  0  0  0  0  0  0  0  0  0
  -15.9452  -21.1890  116.2663 H   0  0  0  0  0  0  0  0  0  0  0  0
  -17.5249  -21.6106  115.5288 H   0  0  0  0  0  0  0  0  0  0  0  0
  -16.7502  -23.6709  116.4475 H   0  0  0  0  0  0  0  0  0  0  0  0
  -17.9079  -23.0518  117.6789 H   0  0  0  0  0  0  0  0  0  0  0  0
  -16.2272  -22.5234  119.1994 H   0  0  0  0  0  0  0  0  0  0  0  0
  -15.0044  -22.2391  117.9094 H   0  0  0  0  0  0  0  0  0  0  0  0
  -15.7468  -24.7591  119.3307 H   0  0  0  0  0  0  0  0  0  0  0  0
  -15.5567  -24.9096  117.5373 H   0  0  0  0  0  0  0  0  0  0  0  0
  -13.3918  -23.3048  118.4738 H   0  0  0  0  0  0  0  0  0  0  0  0
  -13.5223  -24.7338  119.5756 H   0  0  0  0  0  0  0  0  0  0  0  0
  -12.8122  -26.1789  117.9740 H   0  0  0  0  0  0  0  0  0  0  0  0
  -13.8245  -25.4156  116.7043 H   0  0  0  0  0  0  0  0  0  0  0  0
  -12.1442  -23.9794  116.0360 H   0  0  0  0  0  0  0  0  0  0  0  0
  -11.5027  -23.7998  117.7168 H   0  0  0  0  0  0  0  0  0  0  0  0
  -10.7604  -26.3267  117.3903 H   0  0  0  0  0  0  0  0  0  0  0  0
  -10.8961  -25.9449  115.6465 H   0  0  0  0  0  0  0  0  0  0  0  0
   -9.3654  -24.1796  117.6270 H   0  0  0  0  0  0  0  0  0  0  0  0
   -8.6010  -25.5369  116.6988 H   0  0  0  0  0  0  0  0  0  0  0  0
   -6.8372  -21.9540  114.2243 H   0  0  0  0  0  0  0  0  0  0  0  0
   -8.3960  -22.5646  113.5236 H   0  0  0  0  0  0  0  0  0  0  0  0
   -9.4517  -21.2806  115.5356 H   0  0  0  0  0  0  0  0  0  0  0  0
   -6.9714  -19.5175  114.9024 H   0  0  0  0  0  0  0  0  0  0  0  0
   -8.1433  -19.2625  116.2272 H   0  0  0  0  0  0  0  0  0  0  0  0
   -4.6096  -20.7871  116.3530 H   0  0  0  0  0  0  0  0  0  0  0  0
   -3.2215  -20.9295  117.5524 H   0  0  0  0  0  0  0  0  0  0  0  0
   -2.8370  -23.0079  116.9890 H   0  0  0  0  0  0  0  0  0  0  0  0
   -4.5969  -23.7982  118.4788 H   0  0  0  0  0  0  0  0  0  0  0  0
   -5.8499  -23.4836  117.2417 H   0  0  0  0  0  0  0  0  0  0  0  0
  -11.9759  -20.8313  114.0381 H   0  0  0  0  0  0  0  0  0  0  0  0
  -11.7080  -19.3500  113.0842 H   0  0  0  0  0  0  0  0  0  0  0  0
  -11.8779  -20.6478  110.9657 H   0  0  0  0  0  0  0  0  0  0  0  0
  -12.0189  -22.1769  111.8765 H   0  0  0  0  0  0  0  0  0  0  0  0
  -14.0607  -21.1772  113.0416 H   0  0  0  0  0  0  0  0  0  0  0  0
  -13.9467  -19.8056  111.8659 H   0  0  0  0  0  0  0  0  0  0  0  0
  -13.8581  -22.4318  110.5248 H   0  0  0  0  0  0  0  0  0  0  0  0
  -15.3660  -22.2004  111.4896 H   0  0  0  0  0  0  0  0  0  0  0  0
  -14.5790  -19.8032  109.9377 H   0  0  0  0  0  0  0  0  0  0  0  0
  -14.9355  -21.2566  108.9171 H   0  0  0  0  0  0  0  0  0  0  0  0
  -17.1617  -21.3540  109.5822 H   0  0  0  0  0  0  0  0  0  0  0  0
  -16.8519  -20.5344  111.1454 H   0  0  0  0  0  0  0  0  0  0  0  0
  -17.9386  -18.8410  109.8538 H   0  0  0  0  0  0  0  0  0  0  0  0
  -16.2059  -18.4433  109.6505 H   0  0  0  0  0  0  0  0  0  0  0  0
  -16.7436  -20.3032  107.4486 H   0  0  0  0  0  0  0  0  0  0  0  0
  -18.0688  -17.5206  107.6837 H   0  0  0  0  0  0  0  0  0  0  0  0
  -17.9630  -19.7290  105.4982 H   0  0  0  0  0  0  0  0  0  0  0  0
  -18.7170  -18.0968  105.3439 H   0  0  0  0  0  0  0  0  0  0  0  0
  -16.5440  -17.0470  105.0283 H   0  0  0  0  0  0  0  0  0  0  0  0
  -15.6779  -18.5501  105.4156 H   0  0  0  0  0  0  0  0  0  0  0  0
  -16.8367  -19.6750  103.4655 H   0  0  0  0  0  0  0  0  0  0  0  0
  -17.6191  -18.1068  103.0678 H   0  0  0  0  0  0  0  0  0  0  0  0
  -15.3728  -17.0626  102.7783 H   0  0  0  0  0  0  0  0  0  0  0  0
  -14.5931  -18.6314  103.1671 H   0  0  0  0  0  0  0  0  0  0  0  0
  -16.6994  -18.6116  100.9938 H   0  0  0  0  0  0  0  0  0  0  0  0
  -15.0935  -17.8776  100.6201 H   0  0  0  0  0  0  0  0  0  0  0  0
  -14.8375  -20.4553  102.0248 H   0  0  0  0  0  0  0  0  0  0  0  0
  -15.7476  -20.6109  100.4839 H   0  0  0  0  0  0  0  0  0  0  0  0
  -14.0954  -19.9060  100.4839 H   0  0  0  0  0  0  0  0  0  0  0  0
   -4.4363  -25.6880  117.5703 H   0  0  0  0  0  0  0  0  0  0  0  0
   -4.9966  -23.1702  115.1541 H   0  0  0  0  0  0  0  0  0  0  0  0
   -6.8155  -20.0745  119.8081 H   0  0  0  0  0  0  0  0  0  0  0  0
  -17.7877  -14.0698  117.5907 H   0  0  0  0  0  0  0  0  0  0  0  0
  -17.3056  -14.9902  116.1254 H   0  0  0  0  0  0  0  0  0  0  0  0
  -18.8261  -14.0339  116.1254 H   0  0  0  0  0  0  0  0  0  0  0  0
 10  9  1  0
 10 11  1  0
  9  8  1  0
 11 12  1  0
 12 13  1  0
  5  4  1  0
  5  6  1  0
  8  7  1  0
  7  6  1  0
  4  3  1  0
  3  2  1  0
 13 14  1  0
 14 15  1  0
  2 49  1  0
 15 16  1  0
 48 16  2  0
 16 47  1  0
 47 17  1  0
 17 18  1  0
 36 23  2  0
 18 40  1  0
 18 19  1  0
 23 40  1  0
 23 24  1  0
 25 24  1  0
 25 26  1  0
 26 27  1  0
 19 41  1  0
 42  1  2  0
 41  1  1  0
 27 28  1  0
 28 29  1  0
  1 43  1  0
  1 46  1  0
 20 43  1  0
 20 21  1  0
 22 21  1  0
 22 44  1  0
 29 30  1  0
 21 45  1  0
 30 31  1  0
 31 32  2  0
 32 33  1  0
 33 34  1  0
 34 35  1  0
 35 37  1  0
 37 38  1  0
 38 39  1  0
  2 50  1  0
  2 51  1  0
  3 52  1  0
  3 53  1  0
  4 54  1  0
  4 55  1  0
  5 56  1  0
  5 57  1  0
  6 58  1  0
  6 59  1  0
  7 60  1  0
  7 61  1  0
  8 62  1  0
  8 63  1  0
  9 64  1  0
  9 65  1  0
 10 66  1  0
 10 67  1  0
 11 68  1  0
 11 69  1  0
 12 70  1  0
 12 71  1  0
 13 72  1  0
 13 73  1  0
 14 74  1  0
 14 75  1  0
 15 76  1  0
 15 77  1  0
 17 78  1  0
 17 79  1  0
 18 80  1  0
 19 81  1  0
 19 82  1  0
 20 83  1  0
 20 84  1  0
 21 85  1  0
 22 86  1  0
 22 87  1  0
 24 88  1  0
 24 89  1  0
 25 90  1  0
 25 91  1  0
 26 92  1  0
 26 93  1  0
 27 94  1  0
 27 95  1  0
 28 96  1  0
 28 97  1  0
 29 98  1  0
 29 99  1  0
 30100  1  0
 30101  1  0
 31102  1  0
 32103  1  0
 33104  1  0
 33105  1  0
 34106  1  0
 34107  1  0
 35108  1  0
 35109  1  0
 37110  1  0
 37111  1  0
 38112  1  0
 38113  1  0
 39114  1  0
 39115  1  0
 39116  1  0
 44117  1  0
 45118  1  0
 46119  1  0
 49120  1  0
 49121  1  0
 49122  1  0
A    1
P
A    2
C1
A    3
C2
A    4
C3
A    5
C4
A    6
C5
A    7
C6
A    8
C7
A    9
C8
A   10
C9
A   11
C10
A   12
C11
A   13
C12
A   14
C13
A   15
C14
A   16
C15
A   17
C16
A   18
C17
A   19
C18
A   20
C19
A   21
C20
A   22
C21
A   23
C22
A   24
C23
A   25
C24
A   26
C25
A   27
C26
A   28
C27
A   29
C28
A   30
C29
A   31
C30
A   32
C31
A   33
C32
A   34
C33
A   35
C34
A   36
O9
A   37
C35
A   38
C36
A   39
C37
A   40
O8
A   41
O2
A   42
O4
A   43
O5
A   44
O7
A   45
O6
A   46
O3
A   47
O1
A   48
O
A   49
C
M  END
