5USR_8Q1_I_101
     RDKit          3D

 79 78  0  0  0  0  0  0  0  0999 V2000
  -75.4810   -1.2410    9.2030 O   0  0  0  0  0  0  0  0  0  0  0  0
  -76.6540  -14.5480    7.1060 C   0  0  0  0  0  0  0  0  0  0  0  0
  -65.4450    5.4750   15.5720 O   0  0  0  0  0  0  0  0  0  0  0  0
  -77.0630  -13.2830    7.8360 C   0  0  0  0  0  0  0  0  0  0  0  0
  -76.1960  -12.0930    7.4280 C   0  0  0  0  0  0  0  0  0  0  0  0
  -76.6760  -10.8080    8.0950 C   0  0  0  0  0  0  0  0  0  0  0  0
  -64.9560    3.8880   13.7270 O   0  0  0  0  0  0  0  0  0  0  0  0
  -75.8670   -9.5880    7.6620 C   0  0  0  0  0  0  0  0  0  0  0  0
  -76.3820   -8.3330    8.3680 C   0  0  0  0  0  0  0  0  0  0  0  0
  -75.5520   -7.1000    8.0260 C   0  0  0  0  0  0  0  0  0  0  0  0
  -75.6770   -6.0030    9.0830 C   0  0  0  0  0  0  0  0  0  0  0  0
  -76.9260   -5.1470    8.8960 C   0  0  0  0  0  0  0  0  0  0  0  0
  -76.5940   -3.6540    8.9320 C   0  0  0  0  0  0  0  0  0  0  0  0
  -76.2770   -3.1560   10.3400 C   0  0  0  0  0  0  0  0  0  0  0  0
  -75.7790   -1.7280   10.2820 C   0  0  0  0  0  0  0  0  0  0  0  0
  -68.0570    4.8740   14.6220 C   0  0  0  0  0  0  0  0  0  0  0  0
  -68.8480    4.5790   13.3600 C   0  0  0  0  0  0  0  0  0  0  0  0
  -69.1050    5.8680   12.5930 C   0  0  0  0  0  0  0  0  0  0  0  0
  -68.0640    3.6050   12.4980 C   0  0  0  0  0  0  0  0  0  0  0  0
  -70.1590    3.9080   13.7470 C   0  0  0  0  0  0  0  0  0  0  0  0
  -71.1360    4.8920   14.3320 C   0  0  0  0  0  0  0  0  0  0  0  0
  -73.4650    5.3890   13.9480 C   0  0  0  0  0  0  0  0  0  0  0  0
  -74.1980    4.1380   13.4800 C   0  0  0  0  0  0  0  0  0  0  0  0
  -74.0420    4.0510   11.9820 C   0  0  0  0  0  0  0  0  0  0  0  0
  -74.5940    1.6580   12.1030 C   0  0  0  0  0  0  0  0  0  0  0  0
  -75.6060    0.8920   11.2560 C   0  0  0  0  0  0  0  0  0  0  0  0
  -72.0800    5.3590   13.5180 N   0  0  0  0  0  0  0  0  0  0  0  0
  -74.1300    2.8490   11.4120 N   0  0  0  0  0  0  0  0  0  0  0  0
  -67.2010    3.7770   14.9250 O   0  0  0  0  0  0  0  0  0  0  0  0
  -69.8600    2.8820   14.7040 O   0  0  0  0  0  0  0  0  0  0  0  0
  -71.0640    5.2250   15.5040 O   0  0  0  0  0  0  0  0  0  0  0  0
  -73.8390    5.0720   11.3470 O   0  0  0  0  0  0  0  0  0  0  0  0
  -65.6250    4.0620   15.0690 P   0  0  0  0  0  0  0  0  0  0  0  0
  -75.6090   -0.8200   11.6770 S   0  0  0  0  0  0  0  0  0  0  0  0
  -76.4016  -15.3288    7.8386 H   0  0  0  0  0  0  0  0  0  0  0  0
  -77.4865  -14.8926    6.4750 H   0  0  0  0  0  0  0  0  0  0  0  0
  -75.7773  -14.3400    6.4750 H   0  0  0  0  0  0  0  0  0  0  0  0
  -78.1132  -13.0576    7.5987 H   0  0  0  0  0  0  0  0  0  0  0  0
  -76.9314  -13.4507    8.9152 H   0  0  0  0  0  0  0  0  0  0  0  0
  -75.1558  -12.2868    7.7288 H   0  0  0  0  0  0  0  0  0  0  0  0
  -76.2668  -11.9675    6.3375 H   0  0  0  0  0  0  0  0  0  0  0  0
  -77.7307  -10.6448    7.8285 H   0  0  0  0  0  0  0  0  0  0  0  0
  -76.5473  -10.9265    9.1810 H   0  0  0  0  0  0  0  0  0  0  0  0
  -64.0067    3.6411   13.8610 H   0  0  0  0  0  0  0  0  0  0  0  0
  -74.8094   -9.7427    7.9221 H   0  0  0  0  0  0  0  0  0  0  0  0
  -75.9719   -9.4560    6.5750 H   0  0  0  0  0  0  0  0  0  0  0  0
  -77.4234   -8.1557    8.0612 H   0  0  0  0  0  0  0  0  0  0  0  0
  -76.3081   -8.5005    9.4527 H   0  0  0  0  0  0  0  0  0  0  0  0
  -74.4955   -7.3959    7.9470 H   0  0  0  0  0  0  0  0  0  0  0  0
  -75.9288   -6.6947    7.0753 H   0  0  0  0  0  0  0  0  0  0  0  0
  -75.7182   -6.4740   10.0762 H   0  0  0  0  0  0  0  0  0  0  0  0
  -74.8028   -5.3429    8.9827 H   0  0  0  0  0  0  0  0  0  0  0  0
  -77.6388   -5.3741    9.7025 H   0  0  0  0  0  0  0  0  0  0  0  0
  -77.3597   -5.3802    7.9124 H   0  0  0  0  0  0  0  0  0  0  0  0
  -75.7202   -3.4719    8.2890 H   0  0  0  0  0  0  0  0  0  0  0  0
  -77.4802   -3.1073    8.5773 H   0  0  0  0  0  0  0  0  0  0  0  0
  -75.5009   -3.7949   10.7866 H   0  0  0  0  0  0  0  0  0  0  0  0
  -77.1900   -3.1963   10.9522 H   0  0  0  0  0  0  0  0  0  0  0  0
  -68.7524    5.0360   15.4588 H   0  0  0  0  0  0  0  0  0  0  0  0
  -67.4477    5.7762   14.4649 H   0  0  0  0  0  0  0  0  0  0  0  0
  -69.2691    6.6912   13.3039 H   0  0  0  0  0  0  0  0  0  0  0  0
  -68.2350    6.0979   11.9603 H   0  0  0  0  0  0  0  0  0  0  0  0
  -69.9966    5.7467   11.9603 H   0  0  0  0  0  0  0  0  0  0  0  0
  -67.5056    2.9113   13.1437 H   0  0  0  0  0  0  0  0  0  0  0  0
  -68.7589    3.0359   11.8630 H   0  0  0  0  0  0  0  0  0  0  0  0
  -67.3596    4.1623   11.8630 H   0  0  0  0  0  0  0  0  0  0  0  0
  -70.6300    3.4829   12.8484 H   0  0  0  0  0  0  0  0  0  0  0  0
  -73.5017    5.4402   15.0462 H   0  0  0  0  0  0  0  0  0  0  0  0
  -73.9538    6.2717   13.5098 H   0  0  0  0  0  0  0  0  0  0  0  0
  -73.7607    3.2474   13.9549 H   0  0  0  0  0  0  0  0  0  0  0  0
  -75.2618    4.1881   13.7552 H   0  0  0  0  0  0  0  0  0  0  0  0
  -73.7334    1.0056   12.3123 H   0  0  0  0  0  0  0  0  0  0  0  0
  -75.0826    1.9649   13.0395 H   0  0  0  0  0  0  0  0  0  0  0  0
  -76.6095    1.3076   11.4299 H   0  0  0  0  0  0  0  0  0  0  0  0
  -75.3270    0.9935   10.1968 H   0  0  0  0  0  0  0  0  0  0  0  0
  -71.8262    5.7001   12.5799 H   0  0  0  0  0  0  0  0  0  0  0  0
  -73.8529    2.7594   10.4240 H   0  0  0  0  0  0  0  0  0  0  0  0
  -69.9654    3.2438   15.6195 H   0  0  0  0  0  0  0  0  0  0  0  0
  -65.1165    3.2795   15.8548 H   0  0  0  0  0  0  0  0  0  0  0  0
  3 33  2  0
  7 33  1  0
 33 29  1  0
 29 16  1  0
 16 17  1  0
 30 20  1  0
 18 17  1  0
 17 20  1  0
 17 19  1  0
 20 21  1  0
 31 21  2  0
 21 27  1  0
 27 22  1  0
  2  4  1  0
  5  4  1  0
  5  6  1  0
 25 28  1  0
 25 26  1  0
 22 23  1  0
 34 26  1  0
 34 15  1  0
 32 24  2  0
  8  6  1  0
  8  9  1  0
 28 24  1  0
 24 23  1  0
 10  9  1  0
 10 11  1  0
 12 13  1  0
 12 11  1  0
 15 14  1  0
 15  1  2  0
 13 14  1  0
  2 35  1  0
  2 36  1  0
  2 37  1  0
  4 38  1  0
  4 39  1  0
  5 40  1  0
  5 41  1  0
  6 42  1  0
  6 43  1  0
  7 44  1  0
  8 45  1  0
  8 46  1  0
  9 47  1  0
  9 48  1  0
 10 49  1  0
 10 50  1  0
 11 51  1  0
 11 52  1  0
 12 53  1  0
 12 54  1  0
 13 55  1  0
 13 56  1  0
 14 57  1  0
 14 58  1  0
 16 59  1  0
 16 60  1  0
 18 61  1  0
 18 62  1  0
 18 63  1  0
 19 64  1  0
 19 65  1  0
 19 66  1  0
 20 67  1  0
 22 68  1  0
 22 69  1  0
 23 70  1  0
 23 71  1  0
 25 72  1  0
 25 73  1  0
 26 74  1  0
 26 75  1  0
 27 76  1  0
 28 77  1  0
 30 78  1  0
 33 79  1  0
A    1
O4
A    2
C16
A    3
O3
A    4
C15
A    5
C14
A    6
C13
A    7
O2
A    8
C12
A    9
C11
A   10
C10
A   11
C9
A   12
C8
A   13
C7
A   14
C6
A   15
C1
A   16
C28
A   17
C29
A   18
C30
A   19
C31
A   20
C32
A   21
C34
A   22
C37
A   23
C38
A   24
C39
A   25
C42
A   26
C43
A   27
N36
A   28
N41
A   29
O27
A   30
O33
A   31
O35
A   32
O40
A   33
P24
A   34
S44
M  END
