5WNZ_B7J_A_406
     RDKit          3D

 46 47  0  0  0  0  0  0  0  0999 V2000
    3.8140    6.5370   11.8400 C   0  0  0  0  0  0  0  0  0  0  0  0
    7.6440    7.9470    9.5270 C   0  0  0  0  0  0  0  0  0  0  0  0
    9.2080    6.8210   13.3540 C   0  0  0  0  0  0  0  0  0  0  0  0
   10.3210    6.3770   13.5390 O   0  0  0  0  0  0  0  0  0  0  0  0
    8.6590    7.2090   12.0540 C   0  0  0  0  0  0  0  0  0  0  0  0
    7.3200    7.1730   11.7800 C   0  0  0  0  0  0  0  0  0  0  0  0
    6.7690    7.5390   10.5720 N   0  0  0  0  0  0  0  0  0  0  0  0
    5.3420    7.4490   10.3040 C   0  0  0  0  0  0  0  0  0  0  0  0
    4.9580    5.9730    9.9170 C   0  0  0  0  0  0  0  0  0  0  0  0
    4.4920    5.3570   11.2400 C   0  0  0  0  0  0  0  0  0  0  0  0
    3.5260    4.3450   11.0100 O   0  0  0  0  0  0  0  0  0  0  0  0
    3.6280    6.3730   13.3470 C   0  0  0  0  0  0  0  0  0  0  0  0
    4.8260    6.2290   14.0240 O   0  0  0  0  0  0  0  0  0  0  0  0
    5.1210    4.9900   15.0280 P   0  0  0  0  0  0  0  0  0  0  0  0
    6.4860    5.3420   15.6430 O   0  0  0  0  0  0  0  0  0  0  0  0
    3.9680    5.0470   16.0190 O   0  0  0  0  0  0  0  0  0  0  0  0
    5.1260    3.7630   14.1490 O   0  0  0  0  0  0  0  0  0  0  0  0
    4.0140    2.4380   14.0750 P   0  0  0  0  0  0  0  0  0  0  0  0
    2.6630    3.0540   14.4340 O   0  0  0  0  0  0  0  0  0  0  0  0
    4.0340    2.0490   12.6070 O   0  0  0  0  0  0  0  0  0  0  0  0
    4.4590    1.1930   14.9820 O   0  0  0  0  0  0  0  0  0  0  0  0
    4.0510    0.8780   16.4830 P   0  0  0  0  0  0  0  0  0  0  0  0
    3.3860    2.1500   17.0280 O   0  0  0  0  0  0  0  0  0  0  0  0
    3.1340   -0.3060   16.4450 O   0  0  0  0  0  0  0  0  0  0  0  0
    5.3450    0.5580   17.2280 O   0  0  0  0  0  0  0  0  0  0  0  0
    4.6350    7.6640   11.5180 O   0  0  0  0  0  0  0  0  0  0  0  0
    7.1790    8.2560    8.4520 O   0  0  0  0  0  0  0  0  0  0  0  0
    8.9840    7.9790    9.7800 N   0  0  0  0  0  0  0  0  0  0  0  0
    9.5150    7.6400   10.9790 C   0  0  0  0  0  0  0  0  0  0  0  0
   10.8510    7.6940   11.1370 N   0  0  0  0  0  0  0  0  0  0  0  0
    2.7976    6.6638   11.4388 H   0  0  0  0  0  0  0  0  0  0  0  0
    8.5589    6.9419   14.2338 H   0  0  0  0  0  0  0  0  0  0  0  0
    6.6403    6.8303   12.5740 H   0  0  0  0  0  0  0  0  0  0  0  0
    5.1027    8.1737    9.5118 H   0  0  0  0  0  0  0  0  0  0  0  0
    4.1482    5.9612    9.1727 H   0  0  0  0  0  0  0  0  0  0  0  0
    5.7942    5.4215    9.4625 H   0  0  0  0  0  0  0  0  0  0  0  0
    5.2916    4.8946   11.8374 H   0  0  0  0  0  0  0  0  0  0  0  0
    3.1966    3.9999   11.8775 H   0  0  0  0  0  0  0  0  0  0  0  0
    3.1097    7.2620   13.7356 H   0  0  0  0  0  0  0  0  0  0  0  0
    3.0439    5.4552   13.5100 H   0  0  0  0  0  0  0  0  0  0  0  0
    4.3251    5.0293   16.9422 H   0  0  0  0  0  0  0  0  0  0  0  0
    2.5707    3.0961   15.4188 H   0  0  0  0  0  0  0  0  0  0  0  0
    3.3966    2.1298   18.0177 H   0  0  0  0  0  0  0  0  0  0  0  0
    5.1826    0.5982   18.2038 H   0  0  0  0  0  0  0  0  0  0  0  0
   11.2574    7.7104   12.0833 H   0  0  0  0  0  0  0  0  0  0  0  0
   11.4666    7.7189   10.3116 H   0  0  0  0  0  0  0  0  0  0  0  0
 27  2  2  0
  2 28  1  0
  2  7  1  0
 28 29  2  0
  9  8  1  0
  9 10  1  0
  8  7  1  0
  8 26  1  0
  7  6  1  0
 29 30  1  0
 29  5  1  0
 11 10  1  0
 10  1  1  0
 26  1  1  0
  6  5  2  0
  1 12  1  0
  5  3  1  0
 20 18  2  0
 12 13  1  0
  3  4  2  0
 13 14  1  0
 18 17  1  0
 18 19  1  0
 18 21  1  0
 17 14  1  0
 21 22  1  0
 14 15  2  0
 14 16  1  0
 24 22  2  0
 22 23  1  0
 22 25  1  0
  1 31  1  0
  3 32  1  0
  6 33  1  0
  8 34  1  0
  9 35  1  0
  9 36  1  0
 10 37  1  0
 11 38  1  0
 12 39  1  0
 12 40  1  0
 16 41  1  0
 19 42  1  0
 23 43  1  0
 25 44  1  0
 30 45  1  0
 30 46  1  0
A    1
C10
A    2
C26
A    3
C01
A    4
O02
A    5
C03
A    6
C04
A    7
N05
A    8
C06
A    9
C07
A   10
C08
A   11
O09
A   12
C11
A   13
O12
A   14
P13
A   15
O14
A   16
O15
A   17
O16
A   18
P17
A   19
O18
A   20
O19
A   21
O20
A   22
P21
A   23
O22
A   24
O23
A   25
O24
A   26
O25
A   27
O27
A   28
N28
A   29
C29
A   30
N30
M  END
