5WO0_B7A_A_405
     RDKit          3D

 45 46  0  0  0  0  0  0  0  0999 V2000
  -12.6450    6.2790   64.4120 C   0  0  0  0  0  0  0  0  0  0  0  0
   -8.8210    7.5800   62.0520 C   0  0  0  0  0  0  0  0  0  0  0  0
   -7.2360    6.5460   65.8890 C   0  0  0  0  0  0  0  0  0  0  0  0
   -7.8600    6.7040   66.9170 O   0  0  0  0  0  0  0  0  0  0  0  0
   -7.7720    6.8980   64.6040 C   0  0  0  0  0  0  0  0  0  0  0  0
   -9.1110    6.8650   64.3340 C   0  0  0  0  0  0  0  0  0  0  0  0
   -9.6310    7.2110   63.0960 N   0  0  0  0  0  0  0  0  0  0  0  0
  -11.0570    7.1210   62.8750 C   0  0  0  0  0  0  0  0  0  0  0  0
  -11.5460    5.7510   62.4180 C   0  0  0  0  0  0  0  0  0  0  0  0
  -11.9890    5.0770   63.7080 C   0  0  0  0  0  0  0  0  0  0  0  0
  -12.9080    4.0290   63.4170 O   0  0  0  0  0  0  0  0  0  0  0  0
  -12.8230    6.1020   65.9240 C   0  0  0  0  0  0  0  0  0  0  0  0
  -11.5000    5.8460   66.4160 O   0  0  0  0  0  0  0  0  0  0  0  0
  -11.3660    4.7080   67.5720 P   0  0  0  0  0  0  0  0  0  0  0  0
  -12.5300    4.8500   68.5290 O   0  0  0  0  0  0  0  0  0  0  0  0
   -9.9780    4.8150   68.1620 O   0  0  0  0  0  0  0  0  0  0  0  0
  -11.4420    3.2860   66.7760 O   0  0  0  0  0  0  0  0  0  0  0  0
  -12.6270    2.2220   66.6130 P   0  0  0  0  0  0  0  0  0  0  0  0
  -12.6100    1.7690   65.1670 O   0  0  0  0  0  0  0  0  0  0  0  0
  -13.9840    2.6580   67.0540 O   0  0  0  0  0  0  0  0  0  0  0  0
  -12.1160    0.9520   67.4960 O   0  0  0  0  0  0  0  0  0  0  0  0
  -12.3060    0.6570   69.0590 P   0  0  0  0  0  0  0  0  0  0  0  0
  -10.9000    0.2730   69.6300 O   0  0  0  0  0  0  0  0  0  0  0  0
  -13.2970   -0.5280   69.1150 O   0  0  0  0  0  0  0  0  0  0  0  0
  -12.8560    1.9070   69.7550 O   0  0  0  0  0  0  0  0  0  0  0  0
  -11.7570    7.3900   64.0930 O   0  0  0  0  0  0  0  0  0  0  0  0
   -9.2480    7.8660   60.9570 O   0  0  0  0  0  0  0  0  0  0  0  0
   -7.4820    7.6120   62.3400 N   0  0  0  0  0  0  0  0  0  0  0  0
   -6.8520    7.2900   63.5400 C   0  0  0  0  0  0  0  0  0  0  0  0
   -5.6340    7.3520   63.6290 O   0  0  0  0  0  0  0  0  0  0  0  0
  -13.6774    6.4294   64.0633 H   0  0  0  0  0  0  0  0  0  0  0  0
   -6.2241    6.1181   65.9428 H   0  0  0  0  0  0  0  0  0  0  0  0
   -9.8032    6.5519   65.1295 H   0  0  0  0  0  0  0  0  0  0  0  0
  -11.2561    7.8534   62.0788 H   0  0  0  0  0  0  0  0  0  0  0  0
  -12.3883    5.8489   61.7173 H   0  0  0  0  0  0  0  0  0  0  0  0
  -10.7736    5.1798   61.8822 H   0  0  0  0  0  0  0  0  0  0  0  0
  -11.2057    4.5874   64.3053 H   0  0  0  0  0  0  0  0  0  0  0  0
  -13.2467    3.6427   64.2632 H   0  0  0  0  0  0  0  0  0  0  0  0
  -13.2355    7.0160   66.3762 H   0  0  0  0  0  0  0  0  0  0  0  0
  -13.5239    5.2906   66.1696 H   0  0  0  0  0  0  0  0  0  0  0  0
  -12.1980    4.8095   69.4608 H   0  0  0  0  0  0  0  0  0  0  0  0
  -14.0215    2.6700   68.0432 H   0  0  0  0  0  0  0  0  0  0  0  0
  -10.9320    0.2818   70.6194 H   0  0  0  0  0  0  0  0  0  0  0  0
  -12.8037    1.7882   70.7365 H   0  0  0  0  0  0  0  0  0  0  0  0
   -6.8634    7.9118   61.5729 H   0  0  0  0  0  0  0  0  0  0  0  0
 27  2  2  0
  2 28  1  0
  2  7  1  0
 28 29  1  0
  9  8  1  0
  9 10  1  0
  8  7  1  0
  8 26  1  0
  7  6  1  0
 11 10  1  0
 29 30  2  0
 29  5  1  0
 10  1  1  0
 26  1  1  0
  6  5  2  0
  1 12  1  0
  5  3  1  0
 19 18  2  0
  3  4  2  0
 12 13  1  0
 13 14  1  0
 18 17  1  0
 18 20  1  0
 18 21  1  0
 17 14  1  0
 21 22  1  0
 14 16  2  0
 14 15  1  0
 22 24  2  0
 22 23  1  0
 22 25  1  0
  1 31  1  0
  3 32  1  0
  6 33  1  0
  8 34  1  0
  9 35  1  0
  9 36  1  0
 10 37  1  0
 11 38  1  0
 12 39  1  0
 12 40  1  0
 15 41  1  0
 20 42  1  0
 23 43  1  0
 25 44  1  0
 28 45  1  0
A    1
C10
A    2
C26
A    3
C01
A    4
O02
A    5
C03
A    6
C04
A    7
N05
A    8
C06
A    9
C07
A   10
C08
A   11
O09
A   12
C11
A   13
O12
A   14
P13
A   15
O14
A   16
O15
A   17
O16
A   18
P17
A   19
O18
A   20
O19
A   21
O20
A   22
P21
A   23
O22
A   24
O23
A   25
O24
A   26
O25
A   27
O27
A   28
N28
A   29
C29
A   30
O30
M  END
