5WQI_7X0_A_203
     RDKit          3D

 71 73  0  0  0  0  0  0  0  0999 V2000
   46.9250   55.2070   20.7940 O   0  0  0  0  0  0  0  0  0  0  0  0
   45.7800   55.3040   20.2680 C   0  0  0  0  0  0  0  0  0  0  0  0
   44.9570   56.1960   20.6440 O   0  0  0  0  0  0  0  0  0  0  0  0
   45.2160   54.1090   19.3620 C   0  0  0  0  0  0  0  0  0  0  0  0
   46.2580   53.0780   18.7280 C   0  0  0  0  0  0  0  0  0  0  0  0
   47.0490   53.6940   17.5400 C   0  0  0  0  0  0  0  0  0  0  0  0
   47.1970   52.4470   19.8220 C   0  0  0  0  0  0  0  0  0  0  0  0
   48.0580   53.3780   20.5300 O   0  0  0  0  0  0  0  0  0  0  0  0
   47.9520   51.3820   19.2830 C   0  0  0  0  0  0  0  0  0  0  0  0
   49.1920   51.4620   19.0980 O   0  0  0  0  0  0  0  0  0  0  0  0
   47.1640   50.2420   19.0200 C   0  0  0  0  0  0  0  0  0  0  0  0
   47.8890   48.8490   18.9480 C   0  0  0  0  0  0  0  0  0  0  0  0
   48.5240   48.6050   20.3150 C   0  0  0  0  0  0  0  0  0  0  0  0
   48.9750   48.6380   17.8600 C   0  0  0  0  0  0  0  0  0  0  0  0
   46.8870   47.9010   18.8210 C   0  0  0  0  0  0  0  0  0  0  0  0
   46.7520   47.0310   19.7020 O   0  0  0  0  0  0  0  0  0  0  0  0
   45.9480   48.0140   17.7950 C   0  0  0  0  0  0  0  0  0  0  0  0
   45.1730   49.3340   17.9650 C   0  0  0  0  0  0  0  0  0  0  0  0
   46.1520   50.5210   17.9130 C   0  0  0  0  0  0  0  0  0  0  0  0
   46.7150   50.5850   16.4810 C   0  0  0  0  0  0  0  0  0  0  0  0
   45.3820   51.8620   18.3190 C   0  0  0  0  0  0  0  0  0  0  0  0
   44.4000   52.2200   17.3720 C   0  0  0  0  0  0  0  0  0  0  0  0
   43.7010   53.4270   17.4510 C   0  0  0  0  0  0  0  0  0  0  0  0
   42.7370   53.5450   16.4170 C   0  0  0  0  0  0  0  0  0  0  0  0
   44.0090   54.4950   18.3720 C   0  0  0  0  0  0  0  0  0  0  0  0
   44.3320   55.6950   17.4510 C   0  0  0  0  0  0  0  0  0  0  0  0
   42.8000   54.9040   19.0960 C   0  0  0  0  0  0  0  0  0  0  0  0
   41.9590   55.5840   18.4690 O   0  0  0  0  0  0  0  0  0  0  0  0
   42.5560   54.6730   20.6160 C   0  0  0  0  0  0  0  0  0  0  0  0
   41.0890   54.7640   21.0310 C   0  0  0  0  0  0  0  0  0  0  0  0
   43.2080   55.7450   21.3550 O   0  0  0  0  0  0  0  0  0  0  0  0
   43.0690   53.3920   21.2730 C   0  0  0  0  0  0  0  0  0  0  0  0
   43.1350   52.3210   20.6370 O   0  0  0  0  0  0  0  0  0  0  0  0
   43.4320   53.5700   22.5720 O   0  0  0  0  0  0  0  0  0  0  0  0
   44.8550   53.4850   22.9050 C   0  0  0  0  0  0  0  0  0  0  0  0
   47.0179   55.1991   21.7796 H   0  0  0  0  0  0  0  0  0  0  0  0
   44.7631   53.5018   20.1596 H   0  0  0  0  0  0  0  0  0  0  0  0
   47.8609   54.3263   17.9286 H   0  0  0  0  0  0  0  0  0  0  0  0
   47.4748   52.8872   16.9253 H   0  0  0  0  0  0  0  0  0  0  0  0
   46.3711   54.3044   16.9253 H   0  0  0  0  0  0  0  0  0  0  0  0
   46.5050   52.0716   20.5903 H   0  0  0  0  0  0  0  0  0  0  0  0
   47.9447   53.2555   21.5058 H   0  0  0  0  0  0  0  0  0  0  0  0
   46.5982   50.0754   19.9485 H   0  0  0  0  0  0  0  0  0  0  0  0
   47.8098   48.8794   21.1053 H   0  0  0  0  0  0  0  0  0  0  0  0
   48.7877   47.5415   20.4122 H   0  0  0  0  0  0  0  0  0  0  0  0
   49.4320   49.2183   20.4122 H   0  0  0  0  0  0  0  0  0  0  0  0
   49.9455   48.4494   18.3423 H   0  0  0  0  0  0  0  0  0  0  0  0
   48.7034   47.7758   17.2332 H   0  0  0  0  0  0  0  0  0  0  0  0
   49.0460   49.5391   17.2332 H   0  0  0  0  0  0  0  0  0  0  0  0
   45.2477   47.1670   17.8415 H   0  0  0  0  0  0  0  0  0  0  0  0
   46.4599   48.0073   16.8214 H   0  0  0  0  0  0  0  0  0  0  0  0
   44.4359   49.4322   17.1544 H   0  0  0  0  0  0  0  0  0  0  0  0
   44.6561   49.3304   18.9360 H   0  0  0  0  0  0  0  0  0  0  0  0
   47.8072   50.7092   16.5216 H   0  0  0  0  0  0  0  0  0  0  0  0
   46.4714   49.6534   15.9493 H   0  0  0  0  0  0  0  0  0  0  0  0
   46.2685   51.4382   15.9493 H   0  0  0  0  0  0  0  0  0  0  0  0
   44.8858   51.5810   19.2596 H   0  0  0  0  0  0  0  0  0  0  0  0
   44.1778   51.5280   16.5463 H   0  0  0  0  0  0  0  0  0  0  0  0
   41.7375   53.6673   16.8598 H   0  0  0  0  0  0  0  0  0  0  0  0
   42.9721   54.4211   15.7947 H   0  0  0  0  0  0  0  0  0  0  0  0
   42.7539   52.6381   15.7947 H   0  0  0  0  0  0  0  0  0  0  0  0
   44.5691   56.5757   18.0659 H   0  0  0  0  0  0  0  0  0  0  0  0
   45.1956   55.4479   16.8161 H   0  0  0  0  0  0  0  0  0  0  0  0
   43.4610   55.9148   16.8161 H   0  0  0  0  0  0  0  0  0  0  0  0
   41.0181   54.7684   22.1287 H   0  0  0  0  0  0  0  0  0  0  0  0
   40.6518   55.6910   20.6316 H   0  0  0  0  0  0  0  0  0  0  0  0
   40.5406   53.8981   20.6316 H   0  0  0  0  0  0  0  0  0  0  0  0
   43.1096   55.5832   22.3267 H   0  0  0  0  0  0  0  0  0  0  0  0
   44.9759   53.4778   23.9983 H   0  0  0  0  0  0  0  0  0  0  0  0
   45.2756   52.5601   22.4835 H   0  0  0  0  0  0  0  0  0  0  0  0
   45.3827   54.3532   22.4835 H   0  0  0  0  0  0  0  0  0  0  0  0
 24 23  1  0
 20 19  1  0
 22 23  2  0
 22 21  1  0
 26 25  1  0
 23 25  1  0
  6  5  1  0
 17 18  1  0
 17 15  1  0
 14 12  1  0
 19 18  1  0
 19 21  1  0
 19 11  1  0
 21  5  1  0
 25 27  1  0
 25  4  1  0
 28 27  2  0
  5  4  1  0
  5  7  1  0
 15 12  1  0
 15 16  2  0
 12 11  1  0
 12 13  1  0
 11  9  1  0
 27 29  1  0
 10  9  2  0
  9  7  1  0
  4  2  1  0
  7  8  1  0
  2  3  2  0
  2  1  1  0
 29 30  1  0
 29 32  1  0
 29 31  1  0
 33 32  2  0
 32 34  1  0
 34 35  1  0
  1 36  1  0
  4 37  1  0
  6 38  1  0
  6 39  1  0
  6 40  1  0
  7 41  1  0
  8 42  1  0
 11 43  1  0
 13 44  1  0
 13 45  1  0
 13 46  1  0
 14 47  1  0
 14 48  1  0
 14 49  1  0
 17 50  1  0
 17 51  1  0
 18 52  1  0
 18 53  1  0
 20 54  1  0
 20 55  1  0
 20 56  1  0
 21 57  1  0
 22 58  1  0
 24 59  1  0
 24 60  1  0
 24 61  1  0
 26 62  1  0
 26 63  1  0
 26 64  1  0
 30 65  1  0
 30 66  1  0
 30 67  1  0
 31 68  1  0
 35 69  1  0
 35 70  1  0
 35 71  1  0
A    1
OAI
A    2
CAU
A    3
OAN
A    4
CBB
A    5
CBI
A    6
CAH
A    7
CBA
A    8
OAO
A    9
CAY
A   10
OAL
A   11
CBG
A   12
CBC
A   13
CAC
A   14
CAD
A   15
CAW
A   16
OAJ
A   17
CAR
A   18
CAS
A   19
CBH
A   20
CAG
A   21
CBE
A   22
CAQ
A   23
CAV
A   24
CAB
A   25
CBF
A   26
CAF
A   27
CAZ
A   28
OAM
A   29
CBD
A   30
CAE
A   31
OAP
A   32
CAX
A   33
OAK
A   34
OAT
A   35
CAA
M  END
