5WR7_RCH_A_801
     RDKit          3D

 72 76  0  0  0  0  0  0  0  0999 V2000
   -7.0700  -25.4760    7.7260 C   0  0  0  0  0  0  0  0  0  0  0  0
   -8.1020  -25.5740    8.8740 C   0  0  0  0  0  0  0  0  0  0  0  0
   -7.8660  -26.8840    9.6710 C   0  0  0  0  0  0  0  0  0  0  0  0
   -9.5350  -25.5530    8.2820 C   0  0  0  0  0  0  0  0  0  0  0  0
   -8.6210  -24.1360   10.9030 C   0  0  0  0  0  0  0  0  0  0  0  0
   -8.2450  -22.9680   11.7580 C   0  0  0  0  0  0  0  0  0  0  0  0
   -7.3710  -20.7440   12.1620 C   0  0  0  0  0  0  0  0  0  0  0  0
   -8.2790  -22.2030   15.3530 C   0  0  0  0  0  0  0  0  0  0  0  0
   -8.4560  -22.3970   16.4870 C   0  0  0  0  0  0  0  0  0  0  0  0
   -8.6560  -22.6330   17.8760 C   0  0  0  0  0  0  0  0  0  0  0  0
   -7.4700  -22.4760   18.5880 C   0  0  0  0  0  0  0  0  0  0  0  0
   -7.4990  -22.7050   19.9420 C   0  0  0  0  0  0  0  0  0  0  0  0
   -6.5200  -22.6460   20.8220 O   0  0  0  0  0  0  0  0  0  0  0  0
   -6.9230  -22.9610   22.0360 C   0  0  0  0  0  0  0  0  0  0  0  0
   -8.6930  -23.0640   20.6100 C   0  0  0  0  0  0  0  0  0  0  0  0
   -9.8920  -23.1920   19.8880 C   0  0  0  0  0  0  0  0  0  0  0  0
   -8.0450  -24.4320   26.7810 C   0  0  0  0  0  0  0  0  0  0  0  0
   -6.6740  -24.1510   26.8090 C   0  0  0  0  0  0  0  0  0  0  0  0
   -6.4040  -26.7270   29.0480 C   0  0  0  0  0  0  0  0  0  0  0  0
   -6.0690  -23.6960   25.6420 C   0  0  0  0  0  0  0  0  0  0  0  0
   -6.7800  -23.5130   24.4600 C   0  0  0  0  0  0  0  0  0  0  0  0
   -6.0310  -23.0260   23.2440 C   0  0  0  0  0  0  0  0  0  0  0  0
   -4.9490  -24.0570   22.8860 C   0  0  0  0  0  0  0  0  0  0  0  0
   -7.8700  -24.4260    9.7990 N   0  0  0  0  0  0  0  0  0  0  0  0
   -9.5770  -24.8320   11.2210 O   0  0  0  0  0  0  0  0  0  0  0  0
   -8.4070  -23.0560   13.1420 C   0  0  0  0  0  0  0  0  0  0  0  0
   -8.0660  -21.9780   13.9690 C   0  0  0  0  0  0  0  0  0  0  0  0
   -7.5470  -20.8650   13.4680 N   0  0  0  0  0  0  0  0  0  0  0  0
   -6.8030  -19.4590   11.6340 C   0  0  0  0  0  0  0  0  0  0  0  0
   -7.7010  -21.7630   11.2720 C   0  0  0  0  0  0  0  0  0  0  0  0
   -8.2780  -23.2080   22.0000 C   0  0  0  0  0  0  0  0  0  0  0  0
   -9.8510  -22.9850   18.5170 C   0  0  0  0  0  0  0  0  0  0  0  0
   -8.9920  -23.6360   23.2140 C   0  0  0  0  0  0  0  0  0  0  0  0
  -10.1830  -23.8850   23.1810 O   0  0  0  0  0  0  0  0  0  0  0  0
   -8.1550  -23.8040   24.4470 C   0  0  0  0  0  0  0  0  0  0  0  0
   -8.7610  -24.2610   25.6270 C   0  0  0  0  0  0  0  0  0  0  0  0
   -5.8390  -24.2750   27.9320 N   0  0  0  0  0  0  0  0  0  0  0  0
   -6.2470  -24.9560   29.3870 S   0  0  0  0  0  0  0  0  0  0  0  0
   -5.0920  -24.6980   30.1750 O   0  0  0  0  0  0  0  0  0  0  0  0
   -7.4920  -24.3910   29.7750 O   0  0  0  0  0  0  0  0  0  0  0  0
   -5.3600  -21.6670   23.4670 C   0  0  0  0  0  0  0  0  0  0  0  0
   -6.0591  -25.3800    8.1489 H   0  0  0  0  0  0  0  0  0  0  0  0
   -7.1236  -26.3833    7.1063 H   0  0  0  0  0  0  0  0  0  0  0  0
   -7.2934  -24.5950    7.1063 H   0  0  0  0  0  0  0  0  0  0  0  0
   -7.9047  -26.6693   10.7491 H   0  0  0  0  0  0  0  0  0  0  0  0
   -8.6469  -27.6150    9.4145 H   0  0  0  0  0  0  0  0  0  0  0  0
   -6.8791  -27.2965    9.4145 H   0  0  0  0  0  0  0  0  0  0  0  0
  -10.2698  -25.5422    9.1005 H   0  0  0  0  0  0  0  0  0  0  0  0
   -9.6627  -24.6529    7.6627 H   0  0  0  0  0  0  0  0  0  0  0  0
   -9.6891  -26.4490    7.6627 H   0  0  0  0  0  0  0  0  0  0  0  0
   -6.5396  -22.1781   18.0825 H   0  0  0  0  0  0  0  0  0  0  0  0
  -10.8341  -23.4485   20.3946 H   0  0  0  0  0  0  0  0  0  0  0  0
   -8.5491  -24.7917   27.6901 H   0  0  0  0  0  0  0  0  0  0  0  0
   -6.4530  -27.2793   29.9981 H   0  0  0  0  0  0  0  0  0  0  0  0
   -7.3219  -26.9097   28.4700 H   0  0  0  0  0  0  0  0  0  0  0  0
   -5.5326  -27.0683   28.4700 H   0  0  0  0  0  0  0  0  0  0  0  0
   -4.9918  -23.4733   25.6540 H   0  0  0  0  0  0  0  0  0  0  0  0
   -4.5160  -24.4696   23.8091 H   0  0  0  0  0  0  0  0  0  0  0  0
   -5.3979  -24.8699   22.2963 H   0  0  0  0  0  0  0  0  0  0  0  0
   -4.1587  -23.5694   22.2963 H   0  0  0  0  0  0  0  0  0  0  0  0
   -7.0789  -23.8011    9.5878 H   0  0  0  0  0  0  0  0  0  0  0  0
   -8.8058  -23.9797   13.5867 H   0  0  0  0  0  0  0  0  0  0  0  0
   -6.5167  -18.8114   12.4758 H   0  0  0  0  0  0  0  0  0  0  0  0
   -5.9165  -19.6750   11.0196 H   0  0  0  0  0  0  0  0  0  0  0  0
   -7.5595  -18.9488   11.0196 H   0  0  0  0  0  0  0  0  0  0  0  0
   -7.5373  -21.6273   10.1927 H   0  0  0  0  0  0  0  0  0  0  0  0
  -10.7706  -23.0989   17.9242 H   0  0  0  0  0  0  0  0  0  0  0  0
   -9.8375  -24.4873   25.6247 H   0  0  0  0  0  0  0  0  0  0  0  0
   -4.8810  -23.9073   27.8425 H   0  0  0  0  0  0  0  0  0  0  0  0
   -5.2662  -21.4771   24.5464 H   0  0  0  0  0  0  0  0  0  0  0  0
   -4.3606  -21.6717   23.0074 H   0  0  0  0  0  0  0  0  0  0  0  0
   -5.9713  -20.8764   23.0074 H   0  0  0  0  0  0  0  0  0  0  0  0
  1  2  1  0
  4  2  1  0
  2  3  1  0
  2 24  1  0
 24  5  1  0
  5 25  2  0
  5  6  1  0
 30  6  2  0
 30  7  1  0
 29  7  1  0
  6 26  1  0
  7 28  2  0
 26 27  2  0
 28 27  1  0
 27  8  1  0
  8  9  3  0
  9 10  1  0
 10 32  1  0
 10 11  2  0
 32 16  2  0
 11 12  1  0
 16 15  1  0
 12 15  2  0
 12 13  1  0
 15 31  1  0
 13 14  1  0
 31 14  2  0
 31 33  1  0
 14 22  1  0
 23 22  1  0
 34 33  2  0
 33 35  1  0
 22 41  1  0
 22 21  1  0
 35 21  2  0
 35 36  1  0
 21 20  1  0
 36 17  2  0
 20 18  2  0
 17 18  1  0
 18 37  1  0
 37 38  1  0
 19 38  1  0
 38 40  2  0
 38 39  2  0
  1 42  1  0
  1 43  1  0
  1 44  1  0
  3 45  1  0
  3 46  1  0
  3 47  1  0
  4 48  1  0
  4 49  1  0
  4 50  1  0
 11 51  1  0
 16 52  1  0
 17 53  1  0
 19 54  1  0
 19 55  1  0
 19 56  1  0
 20 57  1  0
 23 58  1  0
 23 59  1  0
 23 60  1  0
 24 61  1  0
 26 62  1  0
 29 63  1  0
 29 64  1  0
 29 65  1  0
 30 66  1  0
 32 67  1  0
 36 68  1  0
 37 69  1  0
 41 70  1  0
 41 71  1  0
 41 72  1  0
A    1
C1
A    2
C2
A    3
C3
A    4
C4
A    5
C6
A    6
C8
A    7
C12
A    8
C15
A    9
C16
A   10
C17
A   11
C18
A   12
C19
A   13
O20
A   14
C21
A   15
C23
A   16
C24
A   17
C30
A   18
C31
A   19
C34
A   20
C37
A   21
C38
A   22
C39
A   23
C40
A   24
N5
A   25
O7
A   26
C9
A   27
C10
A   28
N11
A   29
C13
A   30
C14
A   31
C22
A   32
C25
A   33
C26
A   34
O27
A   35
C28
A   36
C29
A   37
N32
A   38
S33
A   39
O35
A   40
O36
A   41
C41
M  END
