5WRE_7TL_A_201
     RDKit          3D

 52 55  0  0  0  0  0  0  0  0999 V2000
  -42.9450   12.0000   24.5770 C   0  0  0  0  0  0  0  0  0  0  0  0
  -43.1410   10.8720   25.4380 O   0  0  0  0  0  0  0  0  0  0  0  0
  -43.2850   11.0360   26.7930 C   0  0  0  0  0  0  0  0  0  0  0  0
  -43.1100   12.2260   27.1270 O   0  0  0  0  0  0  0  0  0  0  0  0
  -43.5880    9.9950   27.7640 C   0  0  0  0  0  0  0  0  0  0  0  0
  -44.0220   10.2460   29.0470 C   0  0  0  0  0  0  0  0  0  0  0  0
  -44.2440    9.1880   29.9730 N   0  0  0  0  0  0  0  0  0  0  0  0
  -44.1730    7.8660   29.5310 C   0  0  0  0  0  0  0  0  0  0  0  0
  -43.9270    7.5620   28.2960 N   0  0  0  0  0  0  0  0  0  0  0  0
  -43.7170    8.5580   27.1980 C   0  0  0  0  0  0  0  0  0  0  0  0
  -45.0220    8.3710   26.2790 C   0  0  0  0  0  0  0  0  0  0  0  0
  -46.3130    8.4910   26.8100 C   0  0  0  0  0  0  0  0  0  0  0  0
  -47.5060    8.3550   26.0700 C   0  0  0  0  0  0  0  0  0  0  0  0
  -47.4000    8.0710   24.7180 C   0  0  0  0  0  0  0  0  0  0  0  0
  -46.1660    7.9200   24.1080 C   0  0  0  0  0  0  0  0  0  0  0  0
  -45.0290    8.0780   24.9330 C   0  0  0  0  0  0  0  0  0  0  0  0
  -43.4260    7.8780   24.1870 Cl  0  0  0  0  0  0  0  0  0  0  0  0
  -48.5510    7.9430   24.0510 F   0  0  0  0  0  0  0  0  0  0  0  0
  -44.4590    6.7310   30.5670 C   0  0  0  0  0  0  0  0  0  0  0  0
  -44.5350    6.7470   31.8880 N   0  0  0  0  0  0  0  0  0  0  0  0
  -44.8860    5.4840   32.4970 C   0  0  0  0  0  0  0  0  0  0  0  0
  -45.1150    4.4740   31.5740 C   0  0  0  0  0  0  0  0  0  0  0  0
  -44.8860    5.1170   29.9670 S   0  0  0  0  0  0  0  0  0  0  0  0
  -44.2340   11.6000   29.7680 C   0  0  0  0  0  0  0  0  0  0  0  0
  -44.9750   11.5180   31.0640 N   0  0  0  0  0  0  0  0  0  0  0  0
  -46.3930   11.2020   30.8120 C   0  0  0  0  0  0  0  0  0  0  0  0
  -46.9540   11.3500   32.2040 C   0  0  0  0  0  0  0  0  0  0  0  0
  -46.0290   12.3240   32.9560 C   0  0  0  0  0  0  0  0  0  0  0  0
  -44.9160   12.6590   31.9640 C   0  0  0  0  0  0  0  0  0  0  0  0
  -43.5500   13.0200   32.6410 C   0  0  0  0  0  0  0  0  0  0  0  0
  -43.3270   14.1500   33.1630 O   0  0  0  0  0  0  0  0  0  0  0  0
  -42.6990   12.0890   32.5940 O   0  0  0  0  0  0  0  0  0  0  0  0
  -47.0500   10.1470   32.8540 F   0  0  0  0  0  0  0  0  0  0  0  0
  -48.2550   11.7120   32.1570 F   0  0  0  0  0  0  0  0  0  0  0  0
  -42.7881   12.9028   25.1855 H   0  0  0  0  0  0  0  0  0  0  0  0
  -42.0633   11.8279   23.9422 H   0  0  0  0  0  0  0  0  0  0  0  0
  -43.8331   12.1354   23.9422 H   0  0  0  0  0  0  0  0  0  0  0  0
  -44.4550    9.3959   30.9595 H   0  0  0  0  0  0  0  0  0  0  0  0
  -42.7858    8.4020   26.6337 H   0  0  0  0  0  0  0  0  0  0  0  0
  -46.4029    8.7075   27.8847 H   0  0  0  0  0  0  0  0  0  0  0  0
  -48.4887    8.4706   26.5506 H   0  0  0  0  0  0  0  0  0  0  0  0
  -46.0752    7.6889   23.0364 H   0  0  0  0  0  0  0  0  0  0  0  0
  -44.9638    5.3382   33.5845 H   0  0  0  0  0  0  0  0  0  0  0  0
  -45.3950    3.4379   31.8151 H   0  0  0  0  0  0  0  0  0  0  0  0
  -44.7986   12.2607   29.0936 H   0  0  0  0  0  0  0  0  0  0  0  0
  -43.2303   11.9782   30.0118 H   0  0  0  0  0  0  0  0  0  0  0  0
  -46.5200   10.1788   30.4288 H   0  0  0  0  0  0  0  0  0  0  0  0
  -46.8769   11.8323   30.0513 H   0  0  0  0  0  0  0  0  0  0  0  0
  -46.5771   13.2334   33.2436 H   0  0  0  0  0  0  0  0  0  0  0  0
  -45.6358   11.8858   33.8852 H   0  0  0  0  0  0  0  0  0  0  0  0
  -45.0409   13.5969   31.4030 H   0  0  0  0  0  0  0  0  0  0  0  0
  -43.3082   14.2451   34.1482 H   0  0  0  0  0  0  0  0  0  0  0  0
 33 27  1  0
 21 22  2  0
 21 20  1  0
 28 27  1  0
 28 29  1  0
 32 30  2  0
 34 27  1  0
 27 26  1  0
 22 23  1  0
 20 19  2  0
 30 31  1  0
 30 29  1  0
 29 25  1  0
 25 26  1  0
 25 24  1  0
 19 23  1  0
 19  8  1  0
  7  8  1  0
  7  6  1  0
  8  9  2  0
 24  6  1  0
  6  5  2  0
  9 10  1  0
  5 10  1  0
  5  3  1  0
 10 11  1  0
 12 13  2  0
 12 11  1  0
  4  3  2  0
 13 14  1  0
  3  2  1  0
 11 16  2  0
 14 18  1  0
 14 15  2  0
 16 15  1  0
 16 17  1  0
  2  1  1  0
  1 35  1  0
  1 36  1  0
  1 37  1  0
  7 38  1  0
 10 39  1  0
 12 40  1  0
 13 41  1  0
 15 42  1  0
 21 43  1  0
 22 44  1  0
 24 45  1  0
 24 46  1  0
 26 47  1  0
 26 48  1  0
 28 49  1  0
 28 50  1  0
 29 51  1  0
 31 52  1  0
A    1
C01
A    2
O02
A    3
C03
A    4
O04
A    5
C05
A    6
C06
A    7
N07
A    8
C08
A    9
N09
A   10
C10
A   11
C11
A   12
C12
A   13
C13
A   14
C14
A   15
C15
A   16
C16
A   17
CL1
A   18
F18
A   19
C19
A   20
N20
A   21
C21
A   22
C22
A   23
S23
A   24
C24
A   25
N25
A   26
C26
A   27
C27
A   28
C28
A   29
C29
A   30
C30
A   31
O31
A   32
O32
A   33
F33
A   34
F34
M  END
