5GSA_73K_A_501
     RDKit          3D

 41 44  0  0  0  0  0  0  0  0999 V2000
  -31.0870   75.1570    5.6230 C   0  0  0  0  0  0  0  0  0  0  0  0
  -31.7340   75.4680    6.7670 C   0  0  0  0  0  0  0  0  0  0  0  0
  -32.1330   74.3200    7.6040 C   0  0  0  0  0  0  0  0  0  0  0  0
  -32.2930   72.3840    8.2020 C   0  0  0  0  0  0  0  0  0  0  0  0
  -28.4660   71.0560    5.4090 C   0  0  0  0  0  0  0  0  0  0  0  0
  -28.1230   70.2130    6.3760 C   0  0  0  0  0  0  0  0  0  0  0  0
  -26.6880   70.4560    6.5290 C   0  0  0  0  0  0  0  0  0  0  0  0
  -26.4570   71.3990    5.6240 C   0  0  0  0  0  0  0  0  0  0  0  0
  -33.4130   77.2630    7.3550 C   0  0  0  0  0  0  0  0  0  0  0  0
  -33.7460   78.6050    7.5820 C   0  0  0  0  0  0  0  0  0  0  0  0
  -32.7350   79.5910    7.4920 C   0  0  0  0  0  0  0  0  0  0  0  0
  -31.3960   79.2390    7.2060 C   0  0  0  0  0  0  0  0  0  0  0  0
  -31.0550   77.8940    7.0170 C   0  0  0  0  0  0  0  0  0  0  0  0
  -34.2130   81.5750    6.2820 C   0  0  0  0  0  0  0  0  0  0  0  0
  -31.8050   73.1140    7.2320 N   0  0  0  0  0  0  0  0  0  0  0  0
  -31.1150   72.8270    6.1240 C   0  0  0  0  0  0  0  0  0  0  0  0
  -30.7750   73.7730    5.3410 N   0  0  0  0  0  0  0  0  0  0  0  0
  -32.0680   76.9020    7.0930 C   0  0  0  0  0  0  0  0  0  0  0  0
  -30.7720   71.6000    5.8350 N   0  0  0  0  0  0  0  0  0  0  0  0
  -29.8100   71.2530    4.8010 C   0  0  0  0  0  0  0  0  0  0  0  0
  -32.7840   74.3880    8.7050 N   0  0  0  0  0  0  0  0  0  0  0  0
  -32.8870   73.0320    9.1200 N   0  0  0  0  0  0  0  0  0  0  0  0
  -27.5110   71.8180    4.9020 O   0  0  0  0  0  0  0  0  0  0  0  0
  -33.1480   81.3080    7.7230 S   0  0  0  0  0  0  0  0  0  0  0  0
  -33.9980   81.4710    8.9020 O   0  0  0  0  0  0  0  0  0  0  0  0
  -31.9090   82.0750    7.5880 O   0  0  0  0  0  0  0  0  0  0  0  0
  -30.8005   75.9474    4.9136 H   0  0  0  0  0  0  0  0  0  0  0  0
  -32.1962   71.2884    8.2216 H   0  0  0  0  0  0  0  0  0  0  0  0
  -28.7607   69.5059    6.9267 H   0  0  0  0  0  0  0  0  0  0  0  0
  -25.9789   69.9773    7.2204 H   0  0  0  0  0  0  0  0  0  0  0  0
  -25.4513   71.8177    5.4719 H   0  0  0  0  0  0  0  0  0  0  0  0
  -34.1953   76.4901    7.3802 H   0  0  0  0  0  0  0  0  0  0  0  0
  -34.7802   78.8885    7.8271 H   0  0  0  0  0  0  0  0  0  0  0  0
  -30.6242   80.0193    7.1321 H   0  0  0  0  0  0  0  0  0  0  0  0
  -30.0126   77.6088    6.8117 H   0  0  0  0  0  0  0  0  0  0  0  0
  -35.2287   81.8296    6.6189 H   0  0  0  0  0  0  0  0  0  0  0  0
  -33.8101   82.3999    5.6761 H   0  0  0  0  0  0  0  0  0  0  0  0
  -34.2469   80.6576    5.6761 H   0  0  0  0  0  0  0  0  0  0  0  0
  -31.2076   70.8350    6.3698 H   0  0  0  0  0  0  0  0  0  0  0  0
  -29.7605   72.0652    4.0608 H   0  0  0  0  0  0  0  0  0  0  0  0
  -30.1261   70.3216    4.3085 H   0  0  0  0  0  0  0  0  0  0  0  0
 20  5  1  0
 20 19  1  0
 23  5  1  0
 23  8  1  0
 17  1  1  0
 17 16  2  0
  5  6  2  0
  1  2  2  0
  8  7  2  0
 19 16  1  0
 16 15  1  0
 14 24  1  0
  6  7  1  0
  2 18  1  0
  2  3  1  0
 13 18  1  0
 13 12  2  0
 18  9  2  0
 12 11  1  0
 15  3  1  0
 15  4  1  0
  9 10  1  0
 11 10  2  0
 11 24  1  0
 26 24  2  0
  3 21  2  0
 24 25  2  0
  4 22  2  0
 21 22  1  0
  1 27  1  0
  4 28  1  0
  6 29  1  0
  7 30  1  0
  8 31  1  0
  9 32  1  0
 10 33  1  0
 12 34  1  0
 13 35  1  0
 14 36  1  0
 14 37  1  0
 14 38  1  0
 19 39  1  0
 20 40  1  0
 20 41  1  0
A    1
C1
A    2
C2
A    3
C3
A    4
C12
A    5
C13
A    6
C14
A    7
C15
A    8
C16
A    9
C18
A   10
C19
A   11
C20
A   12
C21
A   13
C22
A   14
C25
A   15
N4
A   16
C5
A   17
N6
A   18
C7
A   19
N8
A   20
C9
A   21
N10
A   22
N11
A   23
O17
A   24
S23
A   25
O24
A   26
O26
M  END
