5X1V_7XX_A_602
     RDKit          3D

 29 30  0  0  0  0  0  0  0  0999 V2000
    3.6810    2.0620   12.7310 C   0  0  0  0  0  0  0  0  0  0  0  0
    4.4500    1.5970   11.6900 C   0  0  0  0  0  0  0  0  0  0  0  0
    3.9250    1.5890   13.9940 C   0  0  0  0  0  0  0  0  0  0  0  0
    7.0140    2.5280    9.5450 C   0  0  0  0  0  0  0  0  0  0  0  0
    7.7110    0.6030    8.7150 C   0  0  0  0  0  0  0  0  0  0  0  0
    5.4700    0.6940   11.8400 C   0  0  0  0  0  0  0  0  0  0  0  0
    6.9250    1.1200    9.7150 C   0  0  0  0  0  0  0  0  0  0  0  0
    4.9340    0.6700   14.1530 C   0  0  0  0  0  0  0  0  0  0  0  0
    5.7150    0.2140   13.1110 C   0  0  0  0  0  0  0  0  0  0  0  0
    7.8330    2.8380    8.4760 C   0  0  0  0  0  0  0  0  0  0  0  0
    6.2190    0.2480   10.6340 C   0  0  0  0  0  0  0  0  0  0  0  0
    8.1390    4.1790    8.0370 C   0  0  0  0  0  0  0  0  0  0  0  0
    9.1240    1.3110    6.8700 C   0  0  0  0  0  0  0  0  0  0  0  0
    8.2490    1.6210    7.9850 N   0  0  0  0  0  0  0  0  0  0  0  0
    7.1920    5.0540    8.4850 N   0  0  0  0  0  0  0  0  0  0  0  0
    6.1640   -0.9450   10.3830 O   0  0  0  0  0  0  0  0  0  0  0  0
    9.1000    4.5780    7.3880 O   0  0  0  0  0  0  0  0  0  0  0  0
    5.2210    0.1040   15.7370 Cl  0  0  0  0  0  0  0  0  0  0  0  0
    6.9550   -0.9250   13.4800 Cl  0  0  0  0  0  0  0  0  0  0  0  0
    2.8848    2.7999   12.5533 H   0  0  0  0  0  0  0  0  0  0  0  0
    4.2339    1.9715   10.6785 H   0  0  0  0  0  0  0  0  0  0  0  0
    3.3316    1.9343   14.8535 H   0  0  0  0  0  0  0  0  0  0  0  0
    6.5019    3.2686   10.1768 H   0  0  0  0  0  0  0  0  0  0  0  0
    7.8806   -0.4682    8.5311 H   0  0  0  0  0  0  0  0  0  0  0  0
   10.0964    0.9665    7.2518 H   0  0  0  0  0  0  0  0  0  0  0  0
    8.6696    0.5192    6.2564 H   0  0  0  0  0  0  0  0  0  0  0  0
    9.2694    2.2123    6.2564 H   0  0  0  0  0  0  0  0  0  0  0  0
    7.0497    5.1855    9.4966 H   0  0  0  0  0  0  0  0  0  0  0  0
    6.6197    5.5828    7.8114 H   0  0  0  0  0  0  0  0  0  0  0  0
 13 14  1  0
 17 12  2  0
 14 10  1  0
 14  5  1  0
 12 10  1  0
 12 15  1  0
 10  4  2  0
  5  7  2  0
  4  7  1  0
  7 11  1  0
 16 11  2  0
 11  6  1  0
  2  6  1  0
  2  1  2  0
  6  9  2  0
  1  3  1  0
  9 19  1  0
  9  8  1  0
  3  8  2  0
  8 18  1  0
  1 20  1  0
  2 21  1  0
  3 22  1  0
  4 23  1  0
  5 24  1  0
 13 25  1  0
 13 26  1  0
 13 27  1  0
 15 28  1  0
 15 29  1  0
A    1
C1
A    2
C2
A    3
C3
A    4
C4
A    5
C5
A    6
C6
A    7
C7
A    8
C8
A    9
C9
A   10
C10
A   11
C11
A   12
C12
A   13
C13
A   14
N14
A   15
N15
A   16
O16
A   17
O17
A   18
CL1
A   19
CL2
M  END
