5X1W_7Y0_B_601
     RDKit          3D

 62 65  0  0  0  0  0  0  0  0999 V2000
   14.1970    6.0500   11.7610 C   0  0  0  0  0  0  0  0  0  0  0  0
    2.9600    1.7800   13.2150 C   0  0  0  0  0  0  0  0  0  0  0  0
   13.3100    6.8140   12.4820 C   0  0  0  0  0  0  0  0  0  0  0  0
    3.7250    1.2900   12.1830 C   0  0  0  0  0  0  0  0  0  0  0  0
   14.7070    4.8970   12.3050 C   0  0  0  0  0  0  0  0  0  0  0  0
    3.2470    1.4220   14.5070 C   0  0  0  0  0  0  0  0  0  0  0  0
   10.0340    7.4430   12.7090 C   0  0  0  0  0  0  0  0  0  0  0  0
    6.1830    2.2580   10.1830 C   0  0  0  0  0  0  0  0  0  0  0  0
    9.5410    7.8510   14.8530 C   0  0  0  0  0  0  0  0  0  0  0  0
    7.3260    0.4390    9.5550 C   0  0  0  0  0  0  0  0  0  0  0  0
   12.8940    6.4010   13.7280 C   0  0  0  0  0  0  0  0  0  0  0  0
    4.8080    0.4830   12.4430 C   0  0  0  0  0  0  0  0  0  0  0  0
   10.5760    7.4890   14.0210 C   0  0  0  0  0  0  0  0  0  0  0  0
    6.3350    0.8620   10.4050 C   0  0  0  0  0  0  0  0  0  0  0  0
   14.3230    4.5060   13.5670 C   0  0  0  0  0  0  0  0  0  0  0  0
    4.3040    0.5800   14.7650 C   0  0  0  0  0  0  0  0  0  0  0  0
   13.4140    5.2470   14.2910 C   0  0  0  0  0  0  0  0  0  0  0  0
    5.0960    0.1020   13.7390 C   0  0  0  0  0  0  0  0  0  0  0  0
    8.6880    7.7560   12.7590 C   0  0  0  0  0  0  0  0  0  0  0  0
    7.0810    2.6670    9.2160 C   0  0  0  0  0  0  0  0  0  0  0  0
   11.9480    7.2670   14.5070 C   0  0  0  0  0  0  0  0  0  0  0  0
    5.6110   -0.0600   11.2950 C   0  0  0  0  0  0  0  0  0  0  0  0
    7.7640    7.8190   11.6320 C   0  0  0  0  0  0  0  0  0  0  0  0
    7.2470    4.0280    8.6920 C   0  0  0  0  0  0  0  0  0  0  0  0
    7.1260    8.3630   14.6820 C   0  0  0  0  0  0  0  0  0  0  0  0
    8.8440    1.4040    7.8650 C   0  0  0  0  0  0  0  0  0  0  0  0
    7.6430    7.1980    9.2870 C   0  0  0  0  0  0  0  0  0  0  0  0
    6.4470    6.2980    9.0580 C   0  0  0  0  0  0  0  0  0  0  0  0
    8.4120    7.9990   14.0970 N   0  0  0  0  0  0  0  0  0  0  0  0
    7.7770    1.5180    8.8520 N   0  0  0  0  0  0  0  0  0  0  0  0
    8.1630    6.9900   10.6130 N   0  0  0  0  0  0  0  0  0  0  0  0
    6.7270    4.9730    9.5560 N   0  0  0  0  0  0  0  0  0  0  0  0
   12.3690    7.8210   15.5130 O   0  0  0  0  0  0  0  0  0  0  0  0
    5.5730   -1.2650   11.0720 O   0  0  0  0  0  0  0  0  0  0  0  0
    6.7930    8.5630   11.5440 O   0  0  0  0  0  0  0  0  0  0  0  0
    7.7240    4.3190    7.5990 O   0  0  0  0  0  0  0  0  0  0  0  0
   14.9800    3.0640   14.2240 Cl  0  0  0  0  0  0  0  0  0  0  0  0
    4.6270    0.1400   16.3870 Cl  0  0  0  0  0  0  0  0  0  0  0  0
   12.9510    4.7090   15.8690 Cl  0  0  0  0  0  0  0  0  0  0  0  0
    6.4190   -0.9510   14.1030 Cl  0  0  0  0  0  0  0  0  0  0  0  0
   14.4976    6.3619   10.7499 H   0  0  0  0  0  0  0  0  0  0  0  0
    2.1195    2.4578   13.0046 H   0  0  0  0  0  0  0  0  0  0  0  0
   12.9316    7.7578   12.0623 H   0  0  0  0  0  0  0  0  0  0  0  0
    3.4695    1.5447   11.1438 H   0  0  0  0  0  0  0  0  0  0  0  0
   15.4214    4.2869   11.7328 H   0  0  0  0  0  0  0  0  0  0  0  0
    2.6338    1.8070   15.3351 H   0  0  0  0  0  0  0  0  0  0  0  0
   10.5966    7.1970   11.7963 H   0  0  0  0  0  0  0  0  0  0  0  0
    5.4635    2.9100   10.6999 H   0  0  0  0  0  0  0  0  0  0  0  0
    9.6106    7.9964   15.9411 H   0  0  0  0  0  0  0  0  0  0  0  0
    7.6937   -0.5931    9.4572 H   0  0  0  0  0  0  0  0  0  0  0  0
    7.2029    8.3412   15.7791 H   0  0  0  0  0  0  0  0  0  0  0  0
    6.8473    9.3753   14.3540 H   0  0  0  0  0  0  0  0  0  0  0  0
    6.3581    7.6469   14.3540 H   0  0  0  0  0  0  0  0  0  0  0  0
    9.8104    1.3007    8.3801 H   0  0  0  0  0  0  0  0  0  0  0  0
    8.6679    0.5196    7.2351 H   0  0  0  0  0  0  0  0  0  0  0  0
    8.8587    2.3057    7.2351 H   0  0  0  0  0  0  0  0  0  0  0  0
    8.4232    6.9636    8.5479 H   0  0  0  0  0  0  0  0  0  0  0  0
    7.3334    8.2480    9.1789 H   0  0  0  0  0  0  0  0  0  0  0  0
    5.5744    6.7094    9.5865 H   0  0  0  0  0  0  0  0  0  0  0  0
    6.2366    6.2427    7.9797 H   0  0  0  0  0  0  0  0  0  0  0  0
    8.8288    6.2257   10.7958 H   0  0  0  0  0  0  0  0  0  0  0  0
    6.5420    4.7350   10.5409 H   0  0  0  0  0  0  0  0  0  0  0  0
 36 24  2  0
 26 30  1  0
 24 20  1  0
 24 32  1  0
 30 20  1  0
 30 10  1  0
 28 27  1  0
 28 32  1  0
 27 31  1  0
 20  8  2  0
 10 14  2  0
  8 14  1  0
 14 22  1  0
 31 23  1  0
 34 22  2  0
 22 12  1  0
 35 23  2  0
 23 19  1  0
  1  5  2  0
  1  3  1  0
  4 12  1  0
  4  2  2  0
  5 15  1  0
 12 18  2  0
  3 11  2  0
  7 19  2  0
  7 13  1  0
 19 29  1  0
  2  6  1  0
 15 37  1  0
 15 17  2  0
 18 40  1  0
 18 16  1  0
 11 17  1  0
 11 21  1  0
 13 21  1  0
 13  9  2  0
 29 25  1  0
 29  9  1  0
 17 39  1  0
  6 16  2  0
 21 33  2  0
 16 38  1  0
  1 41  1  0
  2 42  1  0
  3 43  1  0
  4 44  1  0
  5 45  1  0
  6 46  1  0
  7 47  1  0
  8 48  1  0
  9 49  1  0
 10 50  1  0
 25 51  1  0
 25 52  1  0
 25 53  1  0
 26 54  1  0
 26 55  1  0
 26 56  1  0
 27 57  1  0
 27 58  1  0
 28 59  1  0
 28 60  1  0
 31 61  1  0
 32 62  1  0
A    1
C1
A    2
C2
A    3
C3
A    4
C4
A    5
C5
A    6
C6
A    7
C7
A    8
C8
A    9
C9
A   10
C10
A   11
C11
A   12
C12
A   13
C13
A   14
C14
A   15
C15
A   16
C16
A   17
C17
A   18
C18
A   19
C19
A   20
C20
A   21
C21
A   22
C22
A   23
C23
A   24
C24
A   25
C25
A   26
C26
A   27
C27
A   28
C28
A   29
N29
A   30
N30
A   31
N31
A   32
N32
A   33
O33
A   34
O34
A   35
O35
A   36
O36
A   37
CL1
A   38
CL2
A   39
CL3
A   40
CL4
M  END
