3AEO_3LM_A_2001
     RDKit          3D

 43 43  0  0  0  0  0  0  0  0999 V2000
   -1.4890   15.0100   46.2030 C   0  0  0  0  0  0  0  0  0  0  0  0
   -2.5960   13.0130   45.5700 N   0  0  0  0  0  0  0  0  0  0  0  0
   -0.3980   15.5910   46.2530 O   0  0  0  0  0  0  0  0  0  0  0  0
   -2.8170    9.3790   41.3420 P   0  0  0  0  0  0  0  0  0  0  0  0
   -6.3440    9.4690   46.3000 N   0  0  0  0  0  0  0  0  0  0  0  0
   -5.6880   10.2340   47.1670 C   0  0  0  0  0  0  0  0  0  0  0  0
   -4.5600   11.0920   46.7080 C   0  0  0  0  0  0  0  0  0  0  0  0
   -3.9090   11.8640   47.6150 O   0  0  0  0  0  0  0  0  0  0  0  0
   -4.2090   11.0930   45.2840 C   0  0  0  0  0  0  0  0  0  0  0  0
   -5.0400   10.2370   44.4160 C   0  0  0  0  0  0  0  0  0  0  0  0
   -6.0700    9.4700   44.9870 C   0  0  0  0  0  0  0  0  0  0  0  0
   -1.8080   14.0530   45.1460 C   0  0  0  0  0  0  0  0  0  0  0  0
   -1.4150   14.1770   43.8390 C   0  0  0  0  0  0  0  0  0  0  0  0
   -1.5800   16.7480   42.7940 S   0  0  0  0  0  0  0  0  0  0  0  0
   -1.6300   17.0590   41.0550 C   0  0  0  0  0  0  0  0  0  0  0  0
   -0.5930   15.3060   43.2200 C   0  0  0  0  0  0  0  0  0  0  0  0
   -6.0000   10.2510   48.6370 C   0  0  0  0  0  0  0  0  0  0  0  0
   -3.1100   11.9600   44.6940 C   0  0  0  0  0  0  0  0  0  0  0  0
   -4.7800   10.1720   42.9210 C   0  0  0  0  0  0  0  0  0  0  0  0
   -3.7740    9.3790   40.2260 O   0  0  0  0  0  0  0  0  0  0  0  0
   -2.1370   10.6940   41.5360 O   0  0  0  0  0  0  0  0  0  0  0  0
   -1.8910    8.1710   41.4440 O   0  0  0  0  0  0  0  0  0  0  0  0
   -3.6980    9.2800   42.6900 O   0  0  0  0  0  0  0  0  0  0  0  0
   -2.3500   15.1950   47.0940 O   0  0  0  0  0  0  0  0  0  0  0  0
   -2.8415   12.9709   46.5694 H   0  0  0  0  0  0  0  0  0  0  0  0
   -4.0409   11.7076   48.5836 H   0  0  0  0  0  0  0  0  0  0  0  0
   -6.6814    8.8396   44.3246 H   0  0  0  0  0  0  0  0  0  0  0  0
   -1.7271   13.3716   43.1579 H   0  0  0  0  0  0  0  0  0  0  0  0
   -1.8024   18.1311   40.8791 H   0  0  0  0  0  0  0  0  0  0  0  0
   -0.6726   16.7623   40.6018 H   0  0  0  0  0  0  0  0  0  0  0  0
   -2.4461   16.4772   40.6018 H   0  0  0  0  0  0  0  0  0  0  0  0
    0.1799   15.6116   43.9405 H   0  0  0  0  0  0  0  0  0  0  0  0
   -0.1575   14.9200   42.2865 H   0  0  0  0  0  0  0  0  0  0  0  0
   -5.0632   10.2000   49.2113 H   0  0  0  0  0  0  0  0  0  0  0  0
   -6.5337   11.1796   48.8878 H   0  0  0  0  0  0  0  0  0  0  0  0
   -6.6315    9.3859   48.8878 H   0  0  0  0  0  0  0  0  0  0  0  0
   -3.5070   12.4386   43.7866 H   0  0  0  0  0  0  0  0  0  0  0  0
   -2.2623   11.2846   44.5063 H   0  0  0  0  0  0  0  0  0  0  0  0
   -5.6792    9.8065   42.4035 H   0  0  0  0  0  0  0  0  0  0  0  0
   -4.5320   11.1728   42.5376 H   0  0  0  0  0  0  0  0  0  0  0  0
   -2.0424   10.8769   42.5043 H   0  0  0  0  0  0  0  0  0  0  0  0
   -1.7287    7.9592   42.3974 H   0  0  0  0  0  0  0  0  0  0  0  0
   -2.0940   15.1400   48.0488 H   0  0  0  0  0  0  0  0  0  0  0  0
  1  3  2  0
  1 12  1  0
  1 24  1  0
  2 12  1  0
  2 18  1  0
  4 20  2  0
  4 21  1  0
  4 22  1  0
  4 23  1  0
  5  6  2  0
  5 11  1  0
  6  7  1  0
  6 17  1  0
  7  8  1  0
  7  9  2  0
  9 10  1  0
  9 18  1  0
 10 11  2  0
 10 19  1  0
 12 13  2  0
 13 16  1  0
 14 15  1  0
 14 16  1  0
 19 23  1  0
  2 25  1  0
  8 26  1  0
 11 27  1  0
 13 28  1  0
 15 29  1  0
 15 30  1  0
 15 31  1  0
 16 32  1  0
 16 33  1  0
 17 34  1  0
 17 35  1  0
 17 36  1  0
 18 37  1  0
 18 38  1  0
 19 39  1  0
 19 40  1  0
 21 41  1  0
 22 42  1  0
 24 43  1  0
A    1
C
A    2
N
A    3
O1
A    4
P
A    5
N1
A    6
C2
A    7
C3
A    8
O3
A    9
C4
A   10
C5
A   11
C6
A   12
CA
A   13
CB
A   14
SD
A   15
CE
A   16
CG
A   17
C2A
A   18
C4A
A   19
C5A
A   20
OP1
A   21
OP2
A   22
OP3
A   23
OP4
A   24
O2
M  END
