5X4P_7ZO_A_801
     RDKit          3D

 27 29  0  0  0  0  0  0  0  0999 V2000
   37.6430   -8.8760  -10.1860 C   0  0  0  0  0  0  0  0  0  0  0  0
   39.6350   -7.8890  -10.4810 C   0  0  0  0  0  0  0  0  0  0  0  0
   41.1290   -8.6300  -16.2410 C   0  0  0  0  0  0  0  0  0  0  0  0
   41.5290   -7.3260  -16.1770 C   0  0  0  0  0  0  0  0  0  0  0  0
   39.5060   -8.2150  -14.5820 C   0  0  0  0  0  0  0  0  0  0  0  0
   38.5400   -8.5750  -12.3540 C   0  0  0  0  0  0  0  0  0  0  0  0
   40.9410   -6.4250  -15.3270 C   0  0  0  0  0  0  0  0  0  0  0  0
   39.9150   -6.8940  -14.5150 C   0  0  0  0  0  0  0  0  0  0  0  0
   40.1160   -9.1020  -15.4420 C   0  0  0  0  0  0  0  0  0  0  0  0
   37.5130   -9.0380  -11.5490 C   0  0  0  0  0  0  0  0  0  0  0  0
   42.9030   -8.2930  -17.7310 C   0  0  0  0  0  0  0  0  0  0  0  0
   41.9550   -9.3610  -17.2510 C   0  0  0  0  0  0  0  0  0  0  0  0
   38.7010   -8.2920   -9.6170 N   0  0  0  0  0  0  0  0  0  0  0  0
   39.6140   -8.0000  -11.8130 N   0  0  0  0  0  0  0  0  0  0  0  0
   42.5560   -7.1350  -17.0790 N   0  0  0  0  0  0  0  0  0  0  0  0
   38.4920   -8.6780  -13.7480 N   0  0  0  0  0  0  0  0  0  0  0  0
   43.8120   -8.4580  -18.5380 O   0  0  0  0  0  0  0  0  0  0  0  0
   36.0840   -9.8170  -12.1370 Cl  0  0  0  0  0  0  0  0  0  0  0  0
   36.8364   -9.2456   -9.5357 H   0  0  0  0  0  0  0  0  0  0  0  0
   40.5250   -7.4101  -10.0468 H   0  0  0  0  0  0  0  0  0  0  0  0
   41.2675   -5.3752  -15.2893 H   0  0  0  0  0  0  0  0  0  0  0  0
   39.4222   -6.2075  -13.8108 H   0  0  0  0  0  0  0  0  0  0  0  0
   39.8017  -10.1552  -15.4874 H   0  0  0  0  0  0  0  0  0  0  0  0
   41.3323   -9.7395  -18.0750 H   0  0  0  0  0  0  0  0  0  0  0  0
   42.4630  -10.2475  -16.8435 H   0  0  0  0  0  0  0  0  0  0  0  0
   43.0112   -6.2260  -17.2446 H   0  0  0  0  0  0  0  0  0  0  0  0
   37.6661   -9.1179  -14.1786 H   0  0  0  0  0  0  0  0  0  0  0  0
 17 11  2  0
 11 12  1  0
 11 15  1  0
 12  3  1  0
 15  4  1  0
  3  4  1  0
  3  9  2  0
  4  7  2  0
  9  5  1  0
  7  8  1  0
  5  8  2  0
  5 16  1  0
 16  6  1  0
  6 14  2  0
  6 10  1  0
 18 10  1  0
 14  2  1  0
 10  1  2  0
  2 13  2  0
  1 13  1  0
  1 19  1  0
  2 20  1  0
  7 21  1  0
  8 22  1  0
  9 23  1  0
 12 24  1  0
 12 25  1  0
 15 26  1  0
 16 27  1  0
A    1
C4
A    2
C5
A    3
C6
A    4
C7
A    5
C8
A    6
C10
A    7
C1
A    8
C2
A    9
C3
A   10
C9
A   11
C11
A   12
C12
A   13
N13
A   14
N14
A   15
N15
A   16
N16
A   17
O17
A   18
CL1
M  END
