5X67_7Z9_A_402
     RDKit          3D

 32 34  0  0  0  0  0  0  0  0999 V2000
   34.9850    9.5830   10.9930 C   0  0  0  0  0  0  0  0  0  0  0  0
   36.4710    7.7100   10.8610 C   0  0  0  0  0  0  0  0  0  0  0  0
   34.0880    8.9070   10.1820 C   0  0  0  0  0  0  0  0  0  0  0  0
   34.3990    7.6450    9.7720 C   0  0  0  0  0  0  0  0  0  0  0  0
   37.2970   12.6170   10.6160 C   0  0  0  0  0  0  0  0  0  0  0  0
   36.2060    8.9740   11.3310 C   0  0  0  0  0  0  0  0  0  0  0  0
   34.5650   10.8980   14.4860 C   0  0  0  0  0  0  0  0  0  0  0  0
   35.8210   11.5380   14.0210 C   0  0  0  0  0  0  0  0  0  0  0  0
   35.9250   11.7770   12.6440 C   0  0  0  0  0  0  0  0  0  0  0  0
   37.1230   12.3450   12.1080 C   0  0  0  0  0  0  0  0  0  0  0  0
   38.1100   12.7190   12.9460 C   0  0  0  0  0  0  0  0  0  0  0  0
   38.0150   12.5130   14.3640 C   0  0  0  0  0  0  0  0  0  0  0  0
   36.8430   11.9270   14.8820 C   0  0  0  0  0  0  0  0  0  0  0  0
   39.2980   13.2980   12.4300 N   0  0  0  0  0  0  0  0  0  0  0  0
   39.4660   13.5380   11.0760 C   0  0  0  0  0  0  0  0  0  0  0  0
   38.4520   13.1120   10.1550 N   0  0  0  0  0  0  0  0  0  0  0  0
   36.4690   12.3610    9.7900 O   0  0  0  0  0  0  0  0  0  0  0  0
   40.6190   14.1330   10.5220 N   0  0  0  0  0  0  0  0  0  0  0  0
   34.5600   11.1880   11.6120 S   0  0  0  0  0  0  0  0  0  0  0  0
   35.5750    7.0620   10.0980 N   0  0  0  0  0  0  0  0  0  0  0  0
   37.4256    7.2244   11.1119 H   0  0  0  0  0  0  0  0  0  0  0  0
   33.1433    9.3796    9.8750 H   0  0  0  0  0  0  0  0  0  0  0  0
   33.6752    7.0864    9.1604 H   0  0  0  0  0  0  0  0  0  0  0  0
   36.9376    9.5006   11.9615 H   0  0  0  0  0  0  0  0  0  0  0  0
   34.5442   10.8874   15.5858 H   0  0  0  0  0  0  0  0  0  0  0  0
   33.7022   11.4664   14.1084 H   0  0  0  0  0  0  0  0  0  0  0  0
   34.5178    9.8659   14.1084 H   0  0  0  0  0  0  0  0  0  0  0  0
   38.8390   12.8062   15.0311 H   0  0  0  0  0  0  0  0  0  0  0  0
   36.7358   11.7770   15.9664 H   0  0  0  0  0  0  0  0  0  0  0  0
   38.6125   13.1869    9.1404 H   0  0  0  0  0  0  0  0  0  0  0  0
   41.3512   14.5108   11.1401 H   0  0  0  0  0  0  0  0  0  0  0  0
   40.7286   14.1896    9.4994 H   0  0  0  0  0  0  0  0  0  0  0  0
  4 20  1  0
  4  3  2  0
 17  5  2  0
 20  2  2  0
  3  1  1  0
 16  5  1  0
 16 15  1  0
 18 15  1  0
  5 10  1  0
  2  6  1  0
  1  6  2  0
  1 19  1  0
 15 14  2  0
 19  9  1  0
 10  9  2  0
 10 11  1  0
 14 11  1  0
  9  8  1  0
 11 12  2  0
  8  7  1  0
  8 13  2  0
 12 13  1  0
  2 21  1  0
  3 22  1  0
  4 23  1  0
  6 24  1  0
  7 25  1  0
  7 26  1  0
  7 27  1  0
 12 28  1  0
 13 29  1  0
 16 30  1  0
 18 31  1  0
 18 32  1  0
A    1
C15
A    2
C17
A    3
C20
A    4
C19
A    5
C11
A    6
C16
A    7
C1
A    8
C2
A    9
C3
A   10
C4
A   11
C5
A   12
C6
A   13
C7
A   14
N8
A   15
C9
A   16
N10
A   17
O12
A   18
N13
A   19
S14
A   20
N18
M  END
