5X72_P59_A_201
     RDKit          3D

 39 42  0  0  0  0  0  0  0  0999 V2000
  -19.2770   17.7260  131.5860 F   0  0  0  0  0  0  0  0  0  0  0  0
  -19.7520   16.7290  130.9550 C   0  0  0  0  0  0  0  0  0  0  0  0
  -20.3050   15.6620  131.6530 C   0  0  0  0  0  0  0  0  0  0  0  0
  -20.8050   14.5510  130.9970 C   0  0  0  0  0  0  0  0  0  0  0  0
  -20.7720   14.5400  129.6030 C   0  0  0  0  0  0  0  0  0  0  0  0
  -20.1880   15.6110  128.8910 C   0  0  0  0  0  0  0  0  0  0  0  0
  -19.6910   16.7450  129.5680 C   0  0  0  0  0  0  0  0  0  0  0  0
  -19.0970   17.8720  128.9530 C   0  0  0  0  0  0  0  0  0  0  0  0
  -20.0250   19.0360  128.9280 N   0  0  0  0  0  0  0  0  0  0  0  0
  -20.9450   19.1310  127.8990 C   0  0  0  0  0  0  0  0  0  0  0  0
  -22.0410   19.9510  128.0480 C   0  0  0  0  0  0  0  0  0  0  0  0
  -22.9850   20.0740  127.0240 C   0  0  0  0  0  0  0  0  0  0  0  0
  -22.7770   19.3690  125.8630 C   0  0  0  0  0  0  0  0  0  0  0  0
  -21.6590   18.5290  125.7050 C   0  0  0  0  0  0  0  0  0  0  0  0
  -20.7580   18.3790  126.7400 C   0  0  0  0  0  0  0  0  0  0  0  0
  -19.5790   17.6490  126.5670 C   0  0  0  0  0  0  0  0  0  0  0  0
  -19.1750   17.3440  125.4290 O   0  0  0  0  0  0  0  0  0  0  0  0
  -18.7130   17.4950  127.5780 N   0  0  0  0  0  0  0  0  0  0  0  0
  -17.4670   17.0590  127.3330 C   0  0  0  0  0  0  0  0  0  0  0  0
  -16.5140   18.0570  127.0550 C   0  0  0  0  0  0  0  0  0  0  0  0
  -15.1850   17.7610  126.8160 C   0  0  0  0  0  0  0  0  0  0  0  0
  -14.7850   16.4410  126.7950 C   0  0  0  0  0  0  0  0  0  0  0  0
  -15.7200   15.4250  127.0300 C   0  0  0  0  0  0  0  0  0  0  0  0
  -17.0730   15.7330  127.3050 C   0  0  0  0  0  0  0  0  0  0  0  0
  -20.3461   15.7016  132.7515 H   0  0  0  0  0  0  0  0  0  0  0  0
  -21.2170   13.7002  131.5595 H   0  0  0  0  0  0  0  0  0  0  0  0
  -21.2041   13.6907  129.0536 H   0  0  0  0  0  0  0  0  0  0  0  0
  -20.1197   15.5604  127.7943 H   0  0  0  0  0  0  0  0  0  0  0  0
  -18.2131   18.1770  129.5323 H   0  0  0  0  0  0  0  0  0  0  0  0
  -19.9829   19.7567  129.6626 H   0  0  0  0  0  0  0  0  0  0  0  0
  -22.1753   20.5153  128.9826 H   0  0  0  0  0  0  0  0  0  0  0  0
  -23.8693   20.7170  127.1444 H   0  0  0  0  0  0  0  0  0  0  0  0
  -23.5000   19.4633  125.0393 H   0  0  0  0  0  0  0  0  0  0  0  0
  -21.5032   17.9924  124.7575 H   0  0  0  0  0  0  0  0  0  0  0  0
  -16.8377   19.1079  127.0270 H   0  0  0  0  0  0  0  0  0  0  0  0
  -14.4564   18.5671  126.6449 H   0  0  0  0  0  0  0  0  0  0  0  0
  -13.7338   16.1868  126.5941 H   0  0  0  0  0  0  0  0  0  0  0  0
  -15.3980   14.3736  127.0003 H   0  0  0  0  0  0  0  0  0  0  0  0
  -17.8010   14.9303  127.4938 H   0  0  0  0  0  0  0  0  0  0  0  0
 17 16  2  0
 14 13  1  0
 14 15  2  0
 13 12  2  0
 16 15  1  0
 16 18  1  0
 15 10  1  0
 22 21  1  0
 22 23  2  0
 21 20  2  0
 12 11  1  0
 23 24  1  0
 20 19  1  0
 24 19  2  0
 19 18  1  0
 18  8  1  0
 10 11  2  0
 10  9  1  0
  6  7  1  0
  6  5  2  0
  9  8  1  0
  8  7  1  0
  7  2  2  0
  5  4  1  0
  2  1  1  0
  2  3  1  0
  4  3  2  0
  3 25  1  0
  4 26  1  0
  5 27  1  0
  6 28  1  0
  8 29  1  0
  9 30  1  0
 11 31  1  0
 12 32  1  0
 13 33  1  0
 14 34  1  0
 20 35  1  0
 21 36  1  0
 22 37  1  0
 23 38  1  0
 24 39  1  0
A    1
FAX
A    2
CAS
A    3
CAT
A    4
CAU
A    5
CAV
A    6
CAW
A    7
CAL
A    8
CAH
A    9
NAG
A   10
CAE
A   11
CAD
A   12
CAC
A   13
CAB
A   14
CAA
A   15
CAF
A   16
CAJ
A   17
OAM
A   18
NAI
A   19
CAK
A   20
CAN
A   21
CAO
A   22
CAP
A   23
CAQ
A   24
CAR
M  END
