1BK9_BU1_A_601
     RDKit          3D

 16 15  0  0  0  0  0  0  0  0999 V2000
   32.2460   52.5520    7.1960 C   0  0  0  0  0  0  0  0  0  0  0  0
   31.3880   51.3990    7.6230 C   0  0  0  0  0  0  0  0  0  0  0  0
   31.1490   51.4010    9.1060 C   0  0  0  0  0  0  0  0  0  0  0  0
   30.2270   50.2210    9.3590 C   0  0  0  0  0  0  0  0  0  0  0  0
   32.6930   52.3130    5.8720 O   0  0  0  0  0  0  0  0  0  0  0  0
   29.8420   50.1280   10.7330 O   0  0  0  0  0  0  0  0  0  0  0  0
   31.6601   53.4824    7.2277 H   0  0  0  0  0  0  0  0  0  0  0  0
   33.1074   52.6521    7.8727 H   0  0  0  0  0  0  0  0  0  0  0  0
   30.4193   51.4654    7.1061 H   0  0  0  0  0  0  0  0  0  0  0  0
   31.9121   50.4677    7.3623 H   0  0  0  0  0  0  0  0  0  0  0  0
   32.0966   51.2745    9.6502 H   0  0  0  0  0  0  0  0  0  0  0  0
   30.7104   52.3487    9.4518 H   0  0  0  0  0  0  0  0  0  0  0  0
   29.3227   50.3384    8.7438 H   0  0  0  0  0  0  0  0  0  0  0  0
   30.7707   49.3019    9.0951 H   0  0  0  0  0  0  0  0  0  0  0  0
   33.5658   51.8464    5.8975 H   0  0  0  0  0  0  0  0  0  0  0  0
   30.6249   50.3171   11.3086 H   0  0  0  0  0  0  0  0  0  0  0  0
  1  2  1  0
  1  5  1  0
  2  3  1  0
  3  4  1  0
  4  6  1  0
  1  7  1  0
  1  8  1  0
  2  9  1  0
  2 10  1  0
  3 11  1  0
  3 12  1  0
  4 13  1  0
  4 14  1  0
  5 15  1  0
  6 16  1  0
A    1
C1
A    2
C2
A    3
C3
A    4
C4
A    5
O5
A    6
O6
M  END
