5X7E_7ZU_A_502
     RDKit          3D

 75 77  0  0  0  0  0  0  0  0999 V2000
    2.4970   -2.9150   15.5110 O   0  0  0  0  0  0  0  0  0  0  0  0
    1.8820   -2.4110   14.3040 C   0  0  0  0  0  0  0  0  0  0  0  0
    2.7000   -2.9450   13.1270 C   0  0  0  0  0  0  0  0  0  0  0  0
    0.4270   -2.9240   14.2630 C   0  0  0  0  0  0  0  0  0  0  0  0
    1.9350   -0.8610   14.2730 C   0  0  0  0  0  0  0  0  0  0  0  0
    1.5050   -0.2530   15.6080 C   0  0  0  0  0  0  0  0  0  0  0  0
    1.6190    1.0570   15.8310 C   0  0  0  0  0  0  0  0  0  0  0  0
    1.1990    1.7340   17.1140 C   0  0  0  0  0  0  0  0  0  0  0  0
    2.5080    1.9570   17.8940 C   0  0  0  0  0  0  0  0  0  0  0  0
    0.3390    3.0330   16.9690 C   0  0  0  0  0  0  0  0  0  0  0  0
    1.0860    4.2830   16.4220 C   0  0  0  0  0  0  0  0  0  0  0  0
   -0.9890    3.0810   16.1820 C   0  0  0  0  0  0  0  0  0  0  0  0
   -0.8590    2.6100   14.7260 C   0  0  0  0  0  0  0  0  0  0  0  0
   -1.3160    4.5820   16.2310 C   0  0  0  0  0  0  0  0  0  0  0  0
    0.0180    5.2510   15.8750 C   0  0  0  0  0  0  0  0  0  0  0  0
   -2.1710    2.3670   16.8460 C   0  0  0  0  0  0  0  0  0  0  0  0
   -3.5240    2.6650   16.1690 C   0  0  0  0  0  0  0  0  0  0  0  0
   -3.7880    4.1140   15.7110 C   0  0  0  0  0  0  0  0  0  0  0  0
   -2.5310    4.9000   15.3720 C   0  0  0  0  0  0  0  0  0  0  0  0
   -2.5210    5.8380   14.3640 C   0  0  0  0  0  0  0  0  0  0  0  0
   -3.5530    6.1730   13.5500 C   0  0  0  0  0  0  0  0  0  0  0  0
   -3.5330    7.1180   12.5440 C   0  0  0  0  0  0  0  0  0  0  0  0
   -2.4390    7.8690   12.2020 C   0  0  0  0  0  0  0  0  0  0  0  0
   -4.7980    7.3630   11.7160 C   0  0  0  0  0  0  0  0  0  0  0  0
   -4.4220    7.3090   10.2190 C   0  0  0  0  0  0  0  0  0  0  0  0
   -5.5020    7.6050    9.3380 O   0  0  0  0  0  0  0  0  0  0  0  0
   -3.3150    8.3080    9.8880 C   0  0  0  0  0  0  0  0  0  0  0  0
    1.1300   -0.2950   13.0790 C   0  0  0  0  0  0  0  0  0  0  0  0
   -2.0630    8.0440   10.7410 C   0  0  0  0  0  0  0  0  0  0  0  0
   -1.3580    6.9010   10.2330 O   0  0  0  0  0  0  0  0  0  0  0  0
   -1.6940    8.5050   13.1210 C   0  0  0  0  0  0  0  0  0  0  0  0
    2.0345   -2.5360   16.3001 H   0  0  0  0  0  0  0  0  0  0  0  0
    3.5643   -3.5092   13.5072 H   0  0  0  0  0  0  0  0  0  0  0  0
    2.0710   -3.6070   12.5137 H   0  0  0  0  0  0  0  0  0  0  0  0
    3.0529   -2.1028   12.5137 H   0  0  0  0  0  0  0  0  0  0  0  0
    0.0553   -3.0550   15.2900 H   0  0  0  0  0  0  0  0  0  0  0  0
   -0.2043   -2.1943   13.7349 H   0  0  0  0  0  0  0  0  0  0  0  0
    0.3930   -3.8883   13.7349 H   0  0  0  0  0  0  0  0  0  0  0  0
    2.9835   -0.5653   14.1204 H   0  0  0  0  0  0  0  0  0  0  0  0
    1.0964   -0.9042   16.3947 H   0  0  0  0  0  0  0  0  0  0  0  0
    2.0446    1.6821   15.0322 H   0  0  0  0  0  0  0  0  0  0  0  0
    0.4885    1.0869   17.6492 H   0  0  0  0  0  0  0  0  0  0  0  0
    2.3018    1.9219   18.9739 H   0  0  0  0  0  0  0  0  0  0  0  0
    3.2294    1.1688   17.6326 H   0  0  0  0  0  0  0  0  0  0  0  0
    2.9277    2.9396   17.6326 H   0  0  0  0  0  0  0  0  0  0  0  0
    0.1014    3.0268   18.0430 H   0  0  0  0  0  0  0  0  0  0  0  0
    1.7746    3.9877   15.6166 H   0  0  0  0  0  0  0  0  0  0  0  0
    1.6768    4.7627   17.2163 H   0  0  0  0  0  0  0  0  0  0  0  0
   -0.5664    1.5498   14.7083 H   0  0  0  0  0  0  0  0  0  0  0  0
   -1.8245    2.7325   14.2134 H   0  0  0  0  0  0  0  0  0  0  0  0
   -0.0930    3.2104   14.2134 H   0  0  0  0  0  0  0  0  0  0  0  0
   -1.6493    4.9715   17.2042 H   0  0  0  0  0  0  0  0  0  0  0  0
    0.1178    5.3665   14.7856 H   0  0  0  0  0  0  0  0  0  0  0  0
    0.1087    6.2615   16.3002 H   0  0  0  0  0  0  0  0  0  0  0  0
   -2.2279    2.6893   17.8962 H   0  0  0  0  0  0  0  0  0  0  0  0
   -1.9918    1.2857   16.7525 H   0  0  0  0  0  0  0  0  0  0  0  0
   -4.3161    2.3959   16.8833 H   0  0  0  0  0  0  0  0  0  0  0  0
   -3.5078    2.0763   15.2399 H   0  0  0  0  0  0  0  0  0  0  0  0
   -4.3163    4.6404   16.5196 H   0  0  0  0  0  0  0  0  0  0  0  0
   -4.3796    4.0500   14.7859 H   0  0  0  0  0  0  0  0  0  0  0  0
   -1.5740    6.3734   14.2013 H   0  0  0  0  0  0  0  0  0  0  0  0
   -4.5011    5.6379   13.7073 H   0  0  0  0  0  0  0  0  0  0  0  0
   -5.2145    8.3518   11.9585 H   0  0  0  0  0  0  0  0  0  0  0  0
   -5.5518    6.5948   11.9432 H   0  0  0  0  0  0  0  0  0  0  0  0
   -4.1010    6.2685   10.0632 H   0  0  0  0  0  0  0  0  0  0  0  0
   -6.3087    7.8261    9.8675 H   0  0  0  0  0  0  0  0  0  0  0  0
   -3.0520    8.2143    8.8240 H   0  0  0  0  0  0  0  0  0  0  0  0
   -3.6808    9.3222   10.1061 H   0  0  0  0  0  0  0  0  0  0  0  0
    0.2846    0.2994   13.4556 H   0  0  0  0  0  0  0  0  0  0  0  0
    1.7832    0.3437   12.4662 H   0  0  0  0  0  0  0  0  0  0  0  0
    0.7500   -1.1257   12.4662 H   0  0  0  0  0  0  0  0  0  0  0  0
   -1.3921    8.9135   10.6781 H   0  0  0  0  0  0  0  0  0  0  0  0
   -1.0226    6.3572   10.9893 H   0  0  0  0  0  0  0  0  0  0  0  0
   -1.9341    8.4036   14.1897 H   0  0  0  0  0  0  0  0  0  0  0  0
   -0.8438    9.1273   12.8050 H   0  0  0  0  0  0  0  0  0  0  0  0
 26 25  1  0
 27 25  1  0
 27 29  1  0
 25 24  1  0
 30 29  1  0
 29 23  1  0
 24 22  1  0
 23 22  1  0
 23 31  2  0
 22 21  2  0
 28  5  1  0
  3  2  1  0
 21 20  1  0
  4  2  1  0
  5  2  1  0
  5  6  1  0
  2  1  1  0
 20 19  2  0
 13 12  1  0
 19 18  1  0
 19 14  1  0
  6  7  2  0
 18 17  1  0
  7  8  1  0
 15 14  1  0
 15 11  1  0
 17 16  1  0
 12 14  1  0
 12 16  1  0
 12 10  1  0
 11 10  1  0
 10  8  1  0
  8  9  1  0
  1 32  1  0
  3 33  1  0
  3 34  1  0
  3 35  1  0
  4 36  1  0
  4 37  1  0
  4 38  1  0
  5 39  1  0
  6 40  1  0
  7 41  1  0
  8 42  1  0
  9 43  1  0
  9 44  1  0
  9 45  1  0
 10 46  1  0
 11 47  1  0
 11 48  1  0
 13 49  1  0
 13 50  1  0
 13 51  1  0
 14 52  1  0
 15 53  1  0
 15 54  1  0
 16 55  1  0
 16 56  1  0
 17 57  1  0
 17 58  1  0
 18 59  1  0
 18 60  1  0
 20 61  1  0
 21 62  1  0
 24 63  1  0
 24 64  1  0
 25 65  1  0
 26 66  1  0
 27 67  1  0
 27 68  1  0
 28 69  1  0
 28 70  1  0
 28 71  1  0
 29 72  1  0
 30 73  1  0
 31 74  1  0
 31 75  1  0
A    1
O3
A    2
C25
A    3
C27
A    4
C26
A    5
C24
A    6
C23
A    7
C22
A    8
C20
A    9
C21
A   10
C17
A   11
C16
A   12
C13
A   13
C18
A   14
C14
A   15
C15
A   16
C12
A   17
C11
A   18
C9
A   19
C8
A   20
C7
A   21
C6
A   22
C5
A   23
C10
A   24
C4
A   25
C3
A   26
O2
A   27
C2
A   28
C28
A   29
C1
A   30
O1
A   31
C19
M  END
