5X8I_SQZ_B_501
     RDKit          3D

 47 52  0  0  0  0  0  0  0  0999 V2000
  -21.2950   14.5190  -17.7690 F   0  0  0  0  0  0  0  0  0  0  0  0
  -21.7520   15.7300  -17.6690 C   0  0  0  0  0  0  0  0  0  0  0  0
  -21.0200   16.6890  -17.0040 C   0  0  0  0  0  0  0  0  0  0  0  0
  -21.4700   17.9580  -16.8570 C   0  0  0  0  0  0  0  0  0  0  0  0
  -22.9430   16.0700  -18.2560 C   0  0  0  0  0  0  0  0  0  0  0  0
  -23.3830   17.3530  -18.1280 C   0  0  0  0  0  0  0  0  0  0  0  0
  -22.6530   18.2760  -17.4450 C   0  0  0  0  0  0  0  0  0  0  0  0
  -23.1410   19.6150  -17.3200 C   0  0  0  0  0  0  0  0  0  0  0  0
  -23.7880   19.8290  -15.9760 C   0  0  0  0  0  0  0  0  0  0  0  0
  -23.8710   20.2140  -18.4660 N   0  0  0  0  0  0  0  0  0  0  0  0
  -23.6050   20.4580  -19.7150 C   0  0  0  0  0  0  0  0  0  0  0  0
  -22.5010   20.2610  -20.5080 C   0  0  0  0  0  0  0  0  0  0  0  0
  -22.6130   20.7590  -21.8840 C   0  0  0  0  0  0  0  0  0  0  0  0
  -23.7050   21.3630  -22.3070 N   0  0  0  0  0  0  0  0  0  0  0  0
  -24.7650   21.5630  -21.5710 C   0  0  0  0  0  0  0  0  0  0  0  0
  -24.7740   21.1610  -20.2710 C   0  0  0  0  0  0  0  0  0  0  0  0
  -25.6530   21.2200  -19.3120 N   0  0  0  0  0  0  0  0  0  0  0  0
  -25.1390   20.6460  -18.1900 N   0  0  0  0  0  0  0  0  0  0  0  0
  -21.5580   20.6050  -22.7340 C   0  0  0  0  0  0  0  0  0  0  0  0
  -20.4230   19.9670  -22.3390 C   0  0  0  0  0  0  0  0  0  0  0  0
  -20.2920   19.5270  -21.0350 C   0  0  0  0  0  0  0  0  0  0  0  0
  -21.3260   19.6550  -20.1400 C   0  0  0  0  0  0  0  0  0  0  0  0
  -19.0910   18.7800  -20.6980 C   0  0  0  0  0  0  0  0  0  0  0  0
  -17.9160   18.9930  -21.3410 C   0  0  0  0  0  0  0  0  0  0  0  0
  -16.8130   18.2380  -21.0550 C   0  0  0  0  0  0  0  0  0  0  0  0
  -16.8900   17.2360  -20.1610 C   0  0  0  0  0  0  0  0  0  0  0  0
  -18.1250   16.9720  -19.4880 C   0  0  0  0  0  0  0  0  0  0  0  0
  -19.2180   17.7330  -19.7970 C   0  0  0  0  0  0  0  0  0  0  0  0
  -15.9620   16.4440  -19.7740 O   0  0  0  0  0  0  0  0  0  0  0  0
  -16.5400   15.6310  -18.8890 C   0  0  0  0  0  0  0  0  0  0  0  0
  -17.8070   15.9640  -18.7160 N   0  0  0  0  0  0  0  0  0  0  0  0
  -20.0422   16.4164  -16.5803 H   0  0  0  0  0  0  0  0  0  0  0  0
  -20.8993   18.7031  -16.2833 H   0  0  0  0  0  0  0  0  0  0  0  0
  -23.5285   15.3260  -18.8161 H   0  0  0  0  0  0  0  0  0  0  0  0
  -24.3407   17.6465  -18.5826 H   0  0  0  0  0  0  0  0  0  0  0  0
  -22.2296   20.2288  -17.3715 H   0  0  0  0  0  0  0  0  0  0  0  0
  -23.0672   19.5906  -15.1800 H   0  0  0  0  0  0  0  0  0  0  0  0
  -24.1025   20.8790  -15.8835 H   0  0  0  0  0  0  0  0  0  0  0  0
  -24.6666   19.1736  -15.8835 H   0  0  0  0  0  0  0  0  0  0  0  0
  -25.6493   22.0557  -22.0013 H   0  0  0  0  0  0  0  0  0  0  0  0
  -21.6257   21.0036  -23.7570 H   0  0  0  0  0  0  0  0  0  0  0  0
  -19.6079   19.8010  -23.0588 H   0  0  0  0  0  0  0  0  0  0  0  0
  -21.2110   19.2675  -19.1170 H   0  0  0  0  0  0  0  0  0  0  0  0
  -17.8498   19.7838  -22.1027 H   0  0  0  0  0  0  0  0  0  0  0  0
  -15.8582   18.4508  -21.5582 H   0  0  0  0  0  0  0  0  0  0  0  0
  -20.1920   17.5164  -19.3340 H   0  0  0  0  0  0  0  0  0  0  0  0
  -16.0336   14.8004  -18.3755 H   0  0  0  0  0  0  0  0  0  0  0  0
 19 20  2  0
 19 13  1  0
 20 21  1  0
 14 13  2  0
 14 15  1  0
 13 12  1  0
 15 16  2  0
 24 25  2  0
 24 23  1  0
 25 26  1  0
 21 23  1  0
 21 22  2  0
 23 28  2  0
 12 22  1  0
 12 11  2  0
 16 11  1  0
 16 17  1  0
 26 29  1  0
 26 27  2  0
 28 27  1  0
 29 30  1  0
 11 10  1  0
 27 31  1  0
 17 18  2  0
 30 31  2  0
 10 18  1  0
 10  8  1  0
  5  6  1  0
  5  2  2  0
  6  7  2  0
  1  2  1  0
  2  3  1  0
  7  8  1  0
  7  4  1  0
  8  9  1  0
  3  4  2  0
  3 32  1  0
  4 33  1  0
  5 34  1  0
  6 35  1  0
  8 36  1  0
  9 37  1  0
  9 38  1  0
  9 39  1  0
 15 40  1  0
 19 41  1  0
 20 42  1  0
 22 43  1  0
 24 44  1  0
 25 45  1  0
 28 46  1  0
 30 47  1  0
A    1
F
A    2
C5
A    3
C4
A    4
C3
A    5
C6
A    6
C7
A    7
C2
A    8
C1
A    9
C
A   10
N
A   11
C9
A   12
C10
A   13
C22
A   14
N4
A   15
C23
A   16
C8
A   17
N2
A   18
N1
A   19
C21
A   20
C20
A   21
C12
A   22
C11
A   23
C13
A   24
C19
A   25
C18
A   26
C17
A   27
C15
A   28
C14
A   29
O
A   30
C16
A   31
N3
M  END
