5X8X_82O_A_9000
     RDKit          3D

 74 78  0  0  0  0  0  0  0  0999 V2000
   20.0650   -1.6760   44.4410 C   0  0  0  0  0  0  0  0  0  0  0  0
   21.3350   -2.7130   45.9580 C   0  0  0  0  0  0  0  0  0  0  0  0
   19.0350   -2.0220   46.7390 C   0  0  0  0  0  0  0  0  0  0  0  0
   20.0980   -2.1240   45.7860 N   0  0  0  0  0  0  0  0  0  0  0  0
   21.2160   -1.9580   43.9000 N   0  0  0  0  0  0  0  0  0  0  0  0
   18.4530   -0.6530   46.9800 C   0  0  0  0  0  0  0  0  0  0  0  0
   19.2430   -1.3610   48.0610 C   0  0  0  0  0  0  0  0  0  0  0  0
   17.6620   -3.1830   43.3970 C   0  0  0  0  0  0  0  0  0  0  0  0
   21.9460   -3.3620   47.2110 C   0  0  0  0  0  0  0  0  0  0  0  0
   17.8790   -5.5920   43.7960 C   0  0  0  0  0  0  0  0  0  0  0  0
   16.5520   -5.9180   44.0170 C   0  0  0  0  0  0  0  0  0  0  0  0
   16.2080   -7.1660   44.6270 C   0  0  0  0  0  0  0  0  0  0  0  0
   18.1210    2.4220   41.6120 O   0  0  0  0  0  0  0  0  0  0  0  0
   17.5730    1.3310   41.4600 C   0  0  0  0  0  0  0  0  0  0  0  0
   16.2910    1.1600   40.6900 C   0  0  0  0  0  0  0  0  0  0  0  0
   18.1110    0.2150   42.0100 N   0  0  0  0  0  0  0  0  0  0  0  0
   17.3990   -1.0640   41.9450 C   0  0  0  0  0  0  0  0  0  0  0  0
   18.3230   -2.0000   42.7040 C   0  0  0  0  0  0  0  0  0  0  0  0
   16.7020   -3.0160   44.1410 O   0  0  0  0  0  0  0  0  0  0  0  0
   18.2220   -4.4090   43.1650 N   0  0  0  0  0  0  0  0  0  0  0  0
   18.9170   -6.4630   44.2150 C   0  0  0  0  0  0  0  0  0  0  0  0
   20.4080   -6.1940   44.0190 C   0  0  0  0  0  0  0  0  0  0  0  0
   18.5640   -7.6810   44.8570 C   0  0  0  0  0  0  0  0  0  0  0  0
   17.2230   -8.0360   45.0530 C   0  0  0  0  0  0  0  0  0  0  0  0
   16.9290   -9.3090   45.7460 C   0  0  0  0  0  0  0  0  0  0  0  0
   19.3660    0.1600   42.7300 C   0  0  0  0  0  0  0  0  0  0  0  0
   19.0080   -1.0120   43.6290 C   0  0  0  0  0  0  0  0  0  0  0  0
   21.9750   -2.6160   44.7880 N   0  0  0  0  0  0  0  0  0  0  0  0
   21.1060   -4.5650   47.7180 C   0  0  0  0  0  0  0  0  0  0  0  0
   22.3950   -5.3920   47.9100 C   0  0  0  0  0  0  0  0  0  0  0  0
   23.0730   -4.3930   46.9620 C   0  0  0  0  0  0  0  0  0  0  0  0
   22.2590   -6.8030   47.3560 C   0  0  0  0  0  0  0  0  0  0  0  0
   21.9230   -7.8670   48.3770 C   0  0  0  0  0  0  0  0  0  0  0  0
   22.9840   -7.7840   49.4910 C   0  0  0  0  0  0  0  0  0  0  0  0
   22.0070   -9.2690   47.7770 C   0  0  0  0  0  0  0  0  0  0  0  0
   18.6521   -3.0106   46.4457 H   0  0  0  0  0  0  0  0  0  0  0  0
   18.8775    0.2249   46.4711 H   0  0  0  0  0  0  0  0  0  0  0  0
   17.4507   -0.2054   46.9094 H   0  0  0  0  0  0  0  0  0  0  0  0
   18.7294   -1.7455   48.9546 H   0  0  0  0  0  0  0  0  0  0  0  0
   20.1209   -1.1081   48.6737 H   0  0  0  0  0  0  0  0  0  0  0  0
   22.1346   -2.4480   47.7932 H   0  0  0  0  0  0  0  0  0  0  0  0
   15.7588   -5.2150   43.7226 H   0  0  0  0  0  0  0  0  0  0  0  0
   15.1518   -7.4422   44.7614 H   0  0  0  0  0  0  0  0  0  0  0  0
   15.4528    1.0482   41.3936 H   0  0  0  0  0  0  0  0  0  0  0  0
   16.1229    2.0437   40.0569 H   0  0  0  0  0  0  0  0  0  0  0  0
   16.3604    0.2632   40.0569 H   0  0  0  0  0  0  0  0  0  0  0  0
   16.4156   -0.9957   42.4331 H   0  0  0  0  0  0  0  0  0  0  0  0
   17.1905   -1.3955   40.9171 H   0  0  0  0  0  0  0  0  0  0  0  0
   19.0049   -2.5657   42.0520 H   0  0  0  0  0  0  0  0  0  0  0  0
   18.9673   -4.4562   42.4557 H   0  0  0  0  0  0  0  0  0  0  0  0
   20.8968   -6.1058   45.0005 H   0  0  0  0  0  0  0  0  0  0  0  0
   20.8599   -7.0251   43.4577 H   0  0  0  0  0  0  0  0  0  0  0  0
   20.5409   -5.2574   43.4577 H   0  0  0  0  0  0  0  0  0  0  0  0
   19.3582   -8.3572   45.2063 H   0  0  0  0  0  0  0  0  0  0  0  0
   16.9655   -9.1511   46.8340 H   0  0  0  0  0  0  0  0  0  0  0  0
   15.9263   -9.6593   45.4597 H   0  0  0  0  0  0  0  0  0  0  0  0
   17.6765  -10.0635   45.4597 H   0  0  0  0  0  0  0  0  0  0  0  0
   20.2200   -0.0589   42.0722 H   0  0  0  0  0  0  0  0  0  0  0  0
   19.6894    1.0850   43.2299 H   0  0  0  0  0  0  0  0  0  0  0  0
   18.3932   -0.6060   44.4458 H   0  0  0  0  0  0  0  0  0  0  0  0
   20.5573   -4.3672   48.6506 H   0  0  0  0  0  0  0  0  0  0  0  0
   20.2791   -4.9599   47.1095 H   0  0  0  0  0  0  0  0  0  0  0  0
   22.8253   -5.6233   48.8956 H   0  0  0  0  0  0  0  0  0  0  0  0
   23.1381   -4.7401   45.9202 H   0  0  0  0  0  0  0  0  0  0  0  0
   24.1237   -4.1091   47.1215 H   0  0  0  0  0  0  0  0  0  0  0  0
   21.4621   -6.7954   46.5978 H   0  0  0  0  0  0  0  0  0  0  0  0
   23.2473   -7.0687   46.9527 H   0  0  0  0  0  0  0  0  0  0  0  0
   20.8995   -7.6968   48.7424 H   0  0  0  0  0  0  0  0  0  0  0  0
   22.4889   -7.8227   50.4725 H   0  0  0  0  0  0  0  0  0  0  0  0
   23.6804   -8.6304   49.3979 H   0  0  0  0  0  0  0  0  0  0  0  0
   23.5403   -6.8396   49.3979 H   0  0  0  0  0  0  0  0  0  0  0  0
   22.0515  -10.0123   48.5867 H   0  0  0  0  0  0  0  0  0  0  0  0
   21.1184   -9.4560   47.1561 H   0  0  0  0  0  0  0  0  0  0  0  0
   22.9115   -9.3485   47.1561 H   0  0  0  0  0  0  0  0  0  0  0  0
 15 14  1  0
 14 13  2  0
 14 16  1  0
 17 16  1  0
 17 18  1  0
 16 26  1  0
 18  8  1  0
 18 27  1  0
 26 27  1  0
 20  8  1  0
 20 10  1  0
  8 19  2  0
 27  1  1  0
 10 11  2  0
 10 21  1  0
  5  1  2  0
  5 28  1  0
 11 12  1  0
 22 21  1  0
 21 23  2  0
  1  4  1  0
 12 24  2  0
 28  2  2  0
 23 24  1  0
 24 25  1  0
  4  2  1  0
  4  3  1  0
  2  9  1  0
  3  6  1  0
  3  7  1  0
 31  9  1  0
 31 30  1  0
  6  7  1  0
  9 29  1  0
 32 30  1  0
 32 33  1  0
 29 30  1  0
 35 33  1  0
 33 34  1  0
  3 36  1  0
  6 37  1  0
  6 38  1  0
  7 39  1  0
  7 40  1  0
  9 41  1  0
 11 42  1  0
 12 43  1  0
 15 44  1  0
 15 45  1  0
 15 46  1  0
 17 47  1  0
 17 48  1  0
 18 49  1  0
 20 50  1  0
 22 51  1  0
 22 52  1  0
 22 53  1  0
 23 54  1  0
 25 55  1  0
 25 56  1  0
 25 57  1  0
 26 58  1  0
 26 59  1  0
 27 60  1  0
 29 61  1  0
 29 62  1  0
 30 63  1  0
 31 64  1  0
 31 65  1  0
 32 66  1  0
 32 67  1  0
 33 68  1  0
 34 69  1  0
 34 70  1  0
 34 71  1  0
 35 72  1  0
 35 73  1  0
 35 74  1  0
A    1
C3
A    2
C5
A    3
C6
A    4
N1
A    5
N2
A    6
C7
A    7
C8
A    8
C9
A    9
C12
A   10
C13
A   11
C14
A   12
C15
A   13
O27
A   14
C26
A   15
C28
A   16
N24
A   17
C25
A   18
C21
A   19
O11
A   20
N10
A   21
C18
A   22
C19
A   23
C17
A   24
C16
A   25
C20
A   26
C23
A   27
C22
A   28
N4
A   29
C31
A   30
C30
A   31
C29
A   32
C32
A   33
C33
A   34
C35
A   35
C34
M  END
