5X93_K87_A_1201
     RDKit          3D

 87 91  0  0  0  0  0  0  0  0999 V2000
    4.1150   47.5780   -1.4560 S   0  0  0  0  0  0  0  0  0  0  0  0
    2.6430   47.9470   -0.5660 C   0  0  0  0  0  0  0  0  0  0  0  0
    4.0590   45.9940   -1.8270 N   0  0  0  0  0  0  0  0  0  0  0  0
    4.0590   48.2630   -2.7180 O   0  0  0  0  0  0  0  0  0  0  0  0
    5.2370   47.7940   -0.5850 O   0  0  0  0  0  0  0  0  0  0  0  0
    2.1680   47.0620    0.3840 C   0  0  0  0  0  0  0  0  0  0  0  0
    1.9410   49.1030   -0.8490 C   0  0  0  0  0  0  0  0  0  0  0  0
    3.0300   45.3920   -2.3840 C   0  0  0  0  0  0  0  0  0  0  0  0
    1.0030   47.3490    1.0690 C   0  0  0  0  0  0  0  0  0  0  0  0
    0.7680   49.3790   -0.1740 C   0  0  0  0  0  0  0  0  0  0  0  0
    3.0970   44.0540   -2.7930 C   0  0  0  0  0  0  0  0  0  0  0  0
    1.9020   46.0940   -2.5510 N   0  0  0  0  0  0  0  0  0  0  0  0
    0.2780   48.5120    0.8020 C   0  0  0  0  0  0  0  0  0  0  0  0
    1.9400   43.5170   -3.3550 C   0  0  0  0  0  0  0  0  0  0  0  0
    4.2930   43.2960   -2.6180 O   0  0  0  0  0  0  0  0  0  0  0  0
    0.8530   45.4860   -3.1010 C   0  0  0  0  0  0  0  0  0  0  0  0
   -1.0210   48.8230    1.5540 C   0  0  0  0  0  0  0  0  0  0  0  0
    0.8220   44.2200   -3.5020 N   0  0  0  0  0  0  0  0  0  0  0  0
    1.9140   42.2060   -3.7830 O   0  0  0  0  0  0  0  0  0  0  0  0
    5.2390   43.1400   -3.6810 C   0  0  0  0  0  0  0  0  0  0  0  0
   -0.4100   46.2820   -3.2360 C   0  0  0  0  0  0  0  0  0  0  0  0
   -1.3080   50.3290    1.5360 C   0  0  0  0  0  0  0  0  0  0  0  0
   -2.2030   48.0980    0.8970 C   0  0  0  0  0  0  0  0  0  0  0  0
   -0.9240   48.3630    3.0140 C   0  0  0  0  0  0  0  0  0  0  0  0
    0.7120   41.7710   -4.4500 C   0  0  0  0  0  0  0  0  0  0  0  0
    6.2310   42.1640   -3.5270 C   0  0  0  0  0  0  0  0  0  0  0  0
    5.1710   43.9190   -4.8060 C   0  0  0  0  0  0  0  0  0  0  0  0
   -0.3200   47.5920   -3.0340 N   0  0  0  0  0  0  0  0  0  0  0  0
   -1.5210   45.5990   -3.5020 N   0  0  0  0  0  0  0  0  0  0  0  0
    0.2390   40.5330   -3.7380 C   0  0  0  0  0  0  0  0  0  0  0  0
    7.1520   41.9990   -4.5530 C   0  0  0  0  0  0  0  0  0  0  0  0
    6.1900   41.4100   -2.3130 O   0  0  0  0  0  0  0  0  0  0  0  0
    6.1070   43.7430   -5.8180 C   0  0  0  0  0  0  0  0  0  0  0  0
   -1.4610   48.2820   -3.1420 C   0  0  0  0  0  0  0  0  0  0  0  0
   -2.6450   46.3200   -3.5900 C   0  0  0  0  0  0  0  0  0  0  0  0
   -0.5040   40.8290   -2.4550 C   0  0  0  0  0  0  0  0  0  0  0  0
    7.0900   42.7890   -5.6920 C   0  0  0  0  0  0  0  0  0  0  0  0
    7.1460   40.3550   -2.1640 C   0  0  0  0  0  0  0  0  0  0  0  0
   -2.6630   47.6820   -3.4200 C   0  0  0  0  0  0  0  0  0  0  0  0
   -0.7860   42.1230   -2.2270 N   0  0  0  0  0  0  0  0  0  0  0  0
   -0.8300   39.9410   -1.6800 O   0  0  0  0  0  0  0  0  0  0  0  0
   -1.5780   42.6250   -1.1130 C   0  0  0  0  0  0  0  0  0  0  0  0
   -0.9640   43.4530   -0.1730 C   0  0  0  0  0  0  0  0  0  0  0  0
   -2.9170   42.2390   -0.9960 C   0  0  0  0  0  0  0  0  0  0  0  0
   -1.7280   43.9020    0.9010 C   0  0  0  0  0  0  0  0  0  0  0  0
    0.4770   43.8510   -0.2960 C   0  0  0  0  0  0  0  0  0  0  0  0
   -3.6400   42.7220    0.0930 C   0  0  0  0  0  0  0  0  0  0  0  0
   -3.5840   41.3540   -2.0090 C   0  0  0  0  0  0  0  0  0  0  0  0
   -3.0500   43.5420    1.0290 C   0  0  0  0  0  0  0  0  0  0  0  0
    4.8879   45.4223   -1.6104 H   0  0  0  0  0  0  0  0  0  0  0  0
    2.7162   46.1317    0.5939 H   0  0  0  0  0  0  0  0  0  0  0  0
    2.3158   49.8025   -1.6108 H   0  0  0  0  0  0  0  0  0  0  0  0
    0.6408   46.6499    1.8372 H   0  0  0  0  0  0  0  0  0  0  0  0
    0.2112   50.2978   -0.4102 H   0  0  0  0  0  0  0  0  0  0  0  0
   -1.3789   50.7011    2.5687 H   0  0  0  0  0  0  0  0  0  0  0  0
   -0.4932   50.8513    1.0132 H   0  0  0  0  0  0  0  0  0  0  0  0
   -2.2578   50.5150    1.0132 H   0  0  0  0  0  0  0  0  0  0  0  0
   -2.8640   47.6926    1.6772 H   0  0  0  0  0  0  0  0  0  0  0  0
   -2.7658   48.8064    0.2714 H   0  0  0  0  0  0  0  0  0  0  0  0
   -1.8266   47.2752    0.2714 H   0  0  0  0  0  0  0  0  0  0  0  0
   -1.1045   49.2190    3.6809 H   0  0  0  0  0  0  0  0  0  0  0  0
   -1.6778   47.5848    3.2041 H   0  0  0  0  0  0  0  0  0  0  0  0
    0.0799   47.9554    3.2041 H   0  0  0  0  0  0  0  0  0  0  0  0
   -0.0565   42.5561   -4.3942 H   0  0  0  0  0  0  0  0  0  0  0  0
    0.9053   41.5636   -5.5129 H   0  0  0  0  0  0  0  0  0  0  0  0
    4.3814   44.6781   -4.9074 H   0  0  0  0  0  0  0  0  0  0  0  0
   -0.4321   39.9783   -4.4103 H   0  0  0  0  0  0  0  0  0  0  0  0
    1.1321   39.9493   -3.4704 H   0  0  0  0  0  0  0  0  0  0  0  0
    7.9380   41.2349   -4.4620 H   0  0  0  0  0  0  0  0  0  0  0  0
    6.0617   44.3681   -6.7220 H   0  0  0  0  0  0  0  0  0  0  0  0
   -1.4344   49.3728   -3.0025 H   0  0  0  0  0  0  0  0  0  0  0  0
   -3.5905   45.8014   -3.8068 H   0  0  0  0  0  0  0  0  0  0  0  0
    7.8284   42.6522   -6.4958 H   0  0  0  0  0  0  0  0  0  0  0  0
    7.3184   40.1648   -1.0944 H   0  0  0  0  0  0  0  0  0  0  0  0
    6.7616   39.4417   -2.6416 H   0  0  0  0  0  0  0  0  0  0  0  0
    8.0927   40.6479   -2.6416 H   0  0  0  0  0  0  0  0  0  0  0  0
   -3.5936   48.2627   -3.5025 H   0  0  0  0  0  0  0  0  0  0  0  0
   -0.4124   42.8143   -2.8929 H   0  0  0  0  0  0  0  0  0  0  0  0
   -1.2681   44.5540    1.6582 H   0  0  0  0  0  0  0  0  0  0  0  0
    0.9112   43.9709    0.7075 H   0  0  0  0  0  0  0  0  0  0  0  0
    1.0274   43.0712   -0.8429 H   0  0  0  0  0  0  0  0  0  0  0  0
    0.5491   44.8027   -0.8429 H   0  0  0  0  0  0  0  0  0  0  0  0
   -4.6982   42.4440    0.2067 H   0  0  0  0  0  0  0  0  0  0  0  0
   -4.1680   40.5791   -1.4909 H   0  0  0  0  0  0  0  0  0  0  0  0
   -4.2536   41.9578   -2.6391 H   0  0  0  0  0  0  0  0  0  0  0  0
   -2.8191   40.8767   -2.6391 H   0  0  0  0  0  0  0  0  0  0  0  0
   -3.6379   43.9107    1.8825 H   0  0  0  0  0  0  0  0  0  0  0  0
 33 37  2  0
 33 27  1  0
 37 31  1  0
 27 20  2  0
 31 26  2  0
 25 19  1  0
 25 30  1  0
 19 14  1  0
 30 36  1  0
 20 26  1  0
 20 15  1  0
 35 29  2  0
 35 39  1  0
 26 32  1  0
 18 14  2  0
 18 16  1  0
 29 21  1  0
 39 34  2  0
 14 11  1  0
 21 16  1  0
 21 28  2  0
 34 28  1  0
 16 12  2  0
 11 15  1  0
 11  8  2  0
  4  1  2  0
 12  8  1  0
 36 40  1  0
 36 41  2  0
  8  3  1  0
 32 38  1  0
 40 42  1  0
 48 44  1  0
  3  1  1  0
  1  5  2  0
  1  2  1  0
 42 44  1  0
 42 43  2  0
 44 47  2  0
  7  2  1  0
  7 10  2  0
  2  6  2  0
 46 43  1  0
 10 13  1  0
 43 45  1  0
 47 49  1  0
  6  9  1  0
 13  9  2  0
 13 17  1  0
 23 17  1  0
 45 49  2  0
 22 17  1  0
 17 24  1  0
  3 50  1  0
  6 51  1  0
  7 52  1  0
  9 53  1  0
 10 54  1  0
 22 55  1  0
 22 56  1  0
 22 57  1  0
 23 58  1  0
 23 59  1  0
 23 60  1  0
 24 61  1  0
 24 62  1  0
 24 63  1  0
 25 64  1  0
 25 65  1  0
 27 66  1  0
 30 67  1  0
 30 68  1  0
 31 69  1  0
 33 70  1  0
 34 71  1  0
 35 72  1  0
 37 73  1  0
 38 74  1  0
 38 75  1  0
 38 76  1  0
 39 77  1  0
 40 78  1  0
 45 79  1  0
 46 80  1  0
 46 81  1  0
 46 82  1  0
 47 83  1  0
 48 84  1  0
 48 85  1  0
 48 86  1  0
 49 87  1  0
A    1
S1
A    2
C1
A    3
N1
A    4
O1
A    5
O2
A    6
C2
A    7
C3
A    8
C4
A    9
C5
A   10
C6
A   11
C7
A   12
N2
A   13
C8
A   14
C9
A   15
O3
A   16
C10
A   17
C11
A   18
N3
A   19
O4
A   20
C12
A   21
C13
A   22
C14
A   23
C15
A   24
C16
A   25
C17
A   26
C18
A   27
C19
A   28
N4
A   29
N5
A   30
C20
A   31
C21
A   32
O5
A   33
C22
A   34
C23
A   35
C24
A   36
C25
A   37
C26
A   38
C27
A   39
C28
A   40
N6
A   41
O6
A   42
C29
A   43
C30
A   44
C31
A   45
C32
A   46
C33
A   47
C34
A   48
C35
A   49
C36
M  END
