5X9O_80R_A_801
     RDKit          3D

 30 32  0  0  0  0  0  0  0  0999 V2000
  -38.6960    6.7150   -9.5120 C   0  0  0  0  0  0  0  0  0  0  0  0
  -39.9470    8.6330  -14.5440 C   0  0  0  0  0  0  0  0  0  0  0  0
  -36.8500    8.2580   -9.4280 C   0  0  0  0  0  0  0  0  0  0  0  0
  -40.9780    6.7120  -15.5180 C   0  0  0  0  0  0  0  0  0  0  0  0
  -40.8510    8.0650  -15.4150 C   0  0  0  0  0  0  0  0  0  0  0  0
  -38.0690    7.9500  -11.4900 C   0  0  0  0  0  0  0  0  0  0  0  0
  -42.4650    7.6190  -16.9740 C   0  0  0  0  0  0  0  0  0  0  0  0
  -40.2200    5.8440  -14.7730 C   0  0  0  0  0  0  0  0  0  0  0  0
  -39.3100    6.4020  -13.9030 C   0  0  0  0  0  0  0  0  0  0  0  0
  -38.8850    7.0310  -10.8390 C   0  0  0  0  0  0  0  0  0  0  0  0
  -39.1720    7.7780  -13.7770 C   0  0  0  0  0  0  0  0  0  0  0  0
  -37.6780    7.3360   -8.8260 C   0  0  0  0  0  0  0  0  0  0  0  0
  -37.0580    8.5520  -10.7560 C   0  0  0  0  0  0  0  0  0  0  0  0
  -41.9570    6.4380  -16.4660 N   0  0  0  0  0  0  0  0  0  0  0  0
  -41.7670    8.6320  -16.3110 N   0  0  0  0  0  0  0  0  0  0  0  0
  -38.2320    8.2860  -12.8610 N   0  0  0  0  0  0  0  0  0  0  0  0
  -37.4530    7.0170   -7.4450 N   0  0  0  0  0  0  0  0  0  0  0  0
  -38.4280    6.8070   -6.7060 O   0  0  0  0  0  0  0  0  0  0  0  0
  -43.3430    7.7100  -17.8250 O   0  0  0  0  0  0  0  0  0  0  0  0
  -36.2620    6.9600   -7.1320 O   0  0  0  0  0  0  0  0  0  0  0  0
  -35.9790    9.6980  -11.4490 Cl  0  0  0  0  0  0  0  0  0  0  0  0
  -39.3452    5.9817   -9.0112 H   0  0  0  0  0  0  0  0  0  0  0  0
  -39.8443    9.7250  -14.4606 H   0  0  0  0  0  0  0  0  0  0  0  0
  -36.0434    8.7465   -8.8616 H   0  0  0  0  0  0  0  0  0  0  0  0
  -40.3339    4.7539  -14.8663 H   0  0  0  0  0  0  0  0  0  0  0  0
  -38.6767    5.7413  -13.2927 H   0  0  0  0  0  0  0  0  0  0  0  0
  -39.6996    6.5457  -11.3965 H   0  0  0  0  0  0  0  0  0  0  0  0
  -42.2592    5.4946  -16.7482 H   0  0  0  0  0  0  0  0  0  0  0  0
  -41.9049    9.6420  -16.4586 H   0  0  0  0  0  0  0  0  0  0  0  0
  -37.5791    8.9911  -13.2316 H   0  0  0  0  0  0  0  0  0  0  0  0
 19  7  2  0
  7 14  1  0
  7 15  1  0
 14  4  1  0
 15  5  1  0
  4  5  1  0
  4  8  2  0
  5  2  2  0
  8  9  1  0
  2 11  1  0
  9 11  2  0
 11 16  1  0
 16  6  1  0
  6 10  1  0
  6 13  2  0
 21 13  1  0
 10  1  2  0
 13  3  1  0
  1 12  1  0
  3 12  2  0
 12 17  1  0
 17 20  1  0
 17 18  2  0
  1 22  1  0
  2 23  1  0
  3 24  1  0
  8 25  1  0
  9 26  1  0
 10 27  1  0
 14 28  1  0
 15 29  1  0
 16 30  1  0
M  CHG  2  17   1  20  -1
A    1
C4
A    2
C5
A    3
C6
A    4
C7
A    5
C8
A    6
C10
A    7
C13
A    8
C1
A    9
C2
A   10
C3
A   11
C9
A   12
C11
A   13
C12
A   14
N14
A   15
N15
A   16
N16
A   17
N17
A   18
O18
A   19
O19
A   20
O20
A   21
CL1
M  END
