5X9P_80L_A_801
     RDKit          3D

 41 43  0  0  0  0  0  0  0  0999 V2000
   38.9580   -7.3000  -11.2740 C   0  0  0  0  0  0  0  0  0  0  0  0
   36.7900   -8.2380   -9.8610 C   0  0  0  0  0  0  0  0  0  0  0  0
   40.9160   -7.3910  -16.0760 C   0  0  0  0  0  0  0  0  0  0  0  0
   40.6030   -8.6970  -15.8610 C   0  0  0  0  0  0  0  0  0  0  0  0
   39.0600   -8.0800  -14.2050 C   0  0  0  0  0  0  0  0  0  0  0  0
   38.0140   -8.1020  -11.9040 C   0  0  0  0  0  0  0  0  0  0  0  0
   42.1650   -8.6580  -17.4900 C   0  0  0  0  0  0  0  0  0  0  0  0
   40.5900   -4.3940  -10.7620 C   0  0  0  0  0  0  0  0  0  0  0  0
   40.3140   -6.3800  -15.3640 C   0  0  0  0  0  0  0  0  0  0  0  0
   39.3710   -6.7440  -14.4220 C   0  0  0  0  0  0  0  0  0  0  0  0
   39.6760   -9.0740  -14.9300 C   0  0  0  0  0  0  0  0  0  0  0  0
   38.8380   -6.9430   -9.9400 C   0  0  0  0  0  0  0  0  0  0  0  0
   37.7330   -7.4310   -9.2580 C   0  0  0  0  0  0  0  0  0  0  0  0
   36.9350   -8.5700  -11.1840 C   0  0  0  0  0  0  0  0  0  0  0  0
   41.7690   -4.1220  -11.6440 C   0  0  0  0  0  0  0  0  0  0  0  0
   40.9590   -5.5850   -9.9120 C   0  0  0  0  0  0  0  0  0  0  0  0
   41.8800   -7.3660  -17.0820 N   0  0  0  0  0  0  0  0  0  0  0  0
   41.3620   -9.4710  -16.7210 N   0  0  0  0  0  0  0  0  0  0  0  0
   38.1100   -8.4560  -13.2580 N   0  0  0  0  0  0  0  0  0  0  0  0
   39.7760   -6.1170   -9.2690 N   0  0  0  0  0  0  0  0  0  0  0  0
   37.4680   -7.1070   -7.8700 N   0  0  0  0  0  0  0  0  0  0  0  0
   38.3920   -6.7530   -7.1170 O   0  0  0  0  0  0  0  0  0  0  0  0
   42.9590   -9.0230  -18.3450 O   0  0  0  0  0  0  0  0  0  0  0  0
   41.8650   -4.4580  -12.8170 O   0  0  0  0  0  0  0  0  0  0  0  0
   36.2710   -7.1300   -7.5530 O   0  0  0  0  0  0  0  0  0  0  0  0
   42.7270   -3.4570  -10.9540 O   0  0  0  0  0  0  0  0  0  0  0  0
   35.6800   -9.5630  -11.8360 Cl  0  0  0  0  0  0  0  0  0  0  0  0
   39.8233   -6.9389  -11.8492 H   0  0  0  0  0  0  0  0  0  0  0  0
   35.9299   -8.6116   -9.2860 H   0  0  0  0  0  0  0  0  0  0  0  0
   40.3824   -3.5217  -10.1248 H   0  0  0  0  0  0  0  0  0  0  0  0
   39.6856   -4.5929  -11.3557 H   0  0  0  0  0  0  0  0  0  0  0  0
   40.5726   -5.3250  -15.5373 H   0  0  0  0  0  0  0  0  0  0  0  0
   38.8600   -5.9656  -13.8364 H   0  0  0  0  0  0  0  0  0  0  0  0
   39.4313  -10.1339  -14.7663 H   0  0  0  0  0  0  0  0  0  0  0  0
   41.4089   -6.3616  -10.5480 H   0  0  0  0  0  0  0  0  0  0  0  0
   41.6795   -5.2713   -9.1423 H   0  0  0  0  0  0  0  0  0  0  0  0
   42.3151   -6.5144  -17.4645 H   0  0  0  0  0  0  0  0  0  0  0  0
   41.3312  -10.4990  -16.7775 H   0  0  0  0  0  0  0  0  0  0  0  0
   37.3707   -9.0853  -13.6019 H   0  0  0  0  0  0  0  0  0  0  0  0
   39.6078   -5.8853   -8.2796 H   0  0  0  0  0  0  0  0  0  0  0  0
   42.7183   -3.4630   -9.9641 H   0  0  0  0  0  0  0  0  0  0  0  0
 23  7  2  0
  7 17  1  0
  7 18  1  0
 17  3  1  0
 18  4  1  0
  3  4  2  0
  3  9  1  0
  4 11  1  0
  9 10  2  0
 11  5  2  0
 10  5  1  0
  5 19  1  0
 19  6  1  0
 24 15  2  0
  6  1  2  0
  6 14  1  0
 27 14  1  0
 15 26  1  0
 15  8  1  0
  1 12  1  0
 14  2  2  0
  8 16  1  0
 12 20  1  0
 12 13  2  0
 16 20  1  0
  2 13  1  0
 13 21  1  0
 21 25  1  0
 21 22  2  0
  1 28  1  0
  2 29  1  0
  8 30  1  0
  8 31  1  0
  9 32  1  0
 10 33  1  0
 11 34  1  0
 16 35  1  0
 16 36  1  0
 17 37  1  0
 18 38  1  0
 19 39  1  0
 20 40  1  0
 26 41  1  0
M  CHG  2  21   1  25  -1
A    1
C4
A    2
C5
A    3
C6
A    4
C7
A    5
C8
A    6
C10
A    7
C13
A    8
C15
A    9
C1
A   10
C2
A   11
C3
A   12
C9
A   13
C11
A   14
C12
A   15
C14
A   16
C16
A   17
N17
A   18
N18
A   19
N19
A   20
N20
A   21
N21
A   22
O22
A   23
O23
A   24
O24
A   25
O25
A   26
O26
A   27
CL1
M  END
