5XAF_84F_B_508
     RDKit          3D

 50 52  0  0  0  0  0  0  0  0999 V2000
   17.2680  -66.6360  -41.5640 N   0  0  0  0  0  0  0  0  0  0  0  0
   17.7610  -66.9400  -42.9510 C   0  0  0  0  0  0  0  0  0  0  0  0
   19.0430  -67.2100  -42.6120 C   0  0  0  0  0  0  0  0  0  0  0  0
   18.9000  -67.0710  -41.1190 C   0  0  0  0  0  0  0  0  0  0  0  0
   19.5230  -67.1830  -40.1190 O   0  0  0  0  0  0  0  0  0  0  0  0
   16.0730  -66.3130  -40.8030 C   0  0  0  0  0  0  0  0  0  0  0  0
   14.8570  -66.1970  -41.4290 C   0  0  0  0  0  0  0  0  0  0  0  0
   13.7370  -65.9180  -40.6660 C   0  0  0  0  0  0  0  0  0  0  0  0
   13.8210  -65.7550  -39.2710 C   0  0  0  0  0  0  0  0  0  0  0  0
   15.0790  -65.8930  -38.6390 C   0  0  0  0  0  0  0  0  0  0  0  0
   16.1890  -66.1790  -39.4220 C   0  0  0  0  0  0  0  0  0  0  0  0
   17.5910  -65.8180  -44.0400 C   0  0  0  0  0  0  0  0  0  0  0  0
   17.2450  -64.5070  -43.6960 C   0  0  0  0  0  0  0  0  0  0  0  0
   17.1200  -63.5370  -44.6980 C   0  0  0  0  0  0  0  0  0  0  0  0
   17.3320  -63.8910  -46.0280 C   0  0  0  0  0  0  0  0  0  0  0  0
   17.6660  -65.1910  -46.3720 C   0  0  0  0  0  0  0  0  0  0  0  0
   17.8010  -66.1510  -45.3770 C   0  0  0  0  0  0  0  0  0  0  0  0
   17.8830  -65.5340  -47.7160 O   0  0  0  0  0  0  0  0  0  0  0  0
   17.2130  -62.9360  -47.0520 O   0  0  0  0  0  0  0  0  0  0  0  0
   16.4710  -61.7830  -46.7110 C   0  0  0  0  0  0  0  0  0  0  0  0
   12.6400  -65.4620  -38.5440 O   0  0  0  0  0  0  0  0  0  0  0  0
   12.4560  -66.2140  -37.3550 C   0  0  0  0  0  0  0  0  0  0  0  0
   15.2970  -65.7650  -37.2390 O   0  0  0  0  0  0  0  0  0  0  0  0
   16.5960  -66.0480  -36.7540 C   0  0  0  0  0  0  0  0  0  0  0  0
   12.5280  -65.7890  -41.3670 O   0  0  0  0  0  0  0  0  0  0  0  0
   12.5750  -66.2720  -42.6970 C   0  0  0  0  0  0  0  0  0  0  0  0
   19.4930  -68.7080  -42.9740 C   0  0  0  0  0  0  0  0  0  0  0  0
   17.2001  -67.7256  -43.4785 H   0  0  0  0  0  0  0  0  0  0  0  0
   19.7905  -66.5809  -43.1174 H   0  0  0  0  0  0  0  0  0  0  0  0
   14.7743  -66.3237  -42.5186 H   0  0  0  0  0  0  0  0  0  0  0  0
   17.1728  -66.3013  -38.9453 H   0  0  0  0  0  0  0  0  0  0  0  0
   17.0719  -64.2394  -42.6432 H   0  0  0  0  0  0  0  0  0  0  0  0
   16.8560  -62.5017  -44.4362 H   0  0  0  0  0  0  0  0  0  0  0  0
   18.0757  -67.1815  -45.6463 H   0  0  0  0  0  0  0  0  0  0  0  0
   18.3983  -66.3485  -47.9420 H   0  0  0  0  0  0  0  0  0  0  0  0
   16.4139  -61.6943  -45.6161 H   0  0  0  0  0  0  0  0  0  0  0  0
   16.9660  -60.8925  -47.1257 H   0  0  0  0  0  0  0  0  0  0  0  0
   15.4554  -61.8646  -47.1257 H   0  0  0  0  0  0  0  0  0  0  0  0
   12.6150  -65.5641  -36.4818 H   0  0  0  0  0  0  0  0  0  0  0  0
   11.4328  -66.6170  -37.3307 H   0  0  0  0  0  0  0  0  0  0  0  0
   13.1776  -67.0439  -37.3307 H   0  0  0  0  0  0  0  0  0  0  0  0
   16.5853  -66.0457  -35.6541 H   0  0  0  0  0  0  0  0  0  0  0  0
   16.9150  -67.0367  -37.1155 H   0  0  0  0  0  0  0  0  0  0  0  0
   17.2974  -65.2816  -37.1155 H   0  0  0  0  0  0  0  0  0  0  0  0
   12.6815  -67.3668  -42.6860 H   0  0  0  0  0  0  0  0  0  0  0  0
   11.6461  -65.9992  -43.2192 H   0  0  0  0  0  0  0  0  0  0  0  0
   13.4339  -65.8253  -43.2192 H   0  0  0  0  0  0  0  0  0  0  0  0
   19.6630  -69.2741  -42.0463 H   0  0  0  0  0  0  0  0  0  0  0  0
   18.7020  -69.1965  -43.5619 H   0  0  0  0  0  0  0  0  0  0  0  0
   20.4223  -68.6797  -43.5619 H   0  0  0  0  0  0  0  0  0  0  0  0
 18 16  1  0
 19 20  1  0
 19 15  1  0
 16 15  2  0
 16 17  1  0
 15 14  1  0
 17 12  2  0
 14 13  2  0
 12 13  1  0
 12  2  1  0
 27  3  1  0
  2  3  1  0
  2  1  1  0
 26 25  1  0
  3  4  1  0
  1  4  1  0
  1  6  1  0
  7  6  2  0
  7  8  1  0
 25  8  1  0
  4  5  2  0
  6 11  1  0
  8  9  2  0
 11 10  2  0
  9 10  1  0
  9 21  1  0
 10 23  1  0
 21 22  1  0
 23 24  1  0
  2 28  1  0
  3 29  1  0
  7 30  1  0
 11 31  1  0
 13 32  1  0
 14 33  1  0
 17 34  1  0
 18 35  1  0
 20 36  1  0
 20 37  1  0
 20 38  1  0
 22 39  1  0
 22 40  1  0
 22 41  1  0
 24 42  1  0
 24 43  1  0
 24 44  1  0
 26 45  1  0
 26 46  1  0
 26 47  1  0
 27 48  1  0
 27 49  1  0
 27 50  1  0
A    1
N1
A    2
C2
A    3
C3
A    4
C4
A    5
O5
A    6
C6
A    7
C7
A    8
C8
A    9
C9
A   10
C10
A   11
C11
A   12
C12
A   13
C13
A   14
C14
A   15
C15
A   16
C16
A   17
C17
A   18
O18
A   19
O19
A   20
C20
A   21
O21
A   22
C22
A   23
O23
A   24
C24
A   25
O25
A   26
C26
A   27
C29
M  END
