5XDT_ZI7_A_403
     RDKit          3D

 34 36  0  0  0  0  0  0  0  0999 V2000
  -13.1550  -20.8990   22.3600 F   0  0  0  0  0  0  0  0  0  0  0  0
  -12.6040  -19.7490   22.6680 C   0  0  0  0  0  0  0  0  0  0  0  0
  -11.3970  -19.6950   22.1620 F   0  0  0  0  0  0  0  0  0  0  0  0
  -12.4700  -19.7600   23.9730 F   0  0  0  0  0  0  0  0  0  0  0  0
  -13.4530  -18.5610   22.2590 C   0  0  0  0  0  0  0  0  0  0  0  0
  -14.7270  -18.4240   22.8280 C   0  0  0  0  0  0  0  0  0  0  0  0
  -15.5280  -17.4000   22.5220 N   0  0  0  0  0  0  0  0  0  0  0  0
  -15.1470  -16.4560   21.6380 C   0  0  0  0  0  0  0  0  0  0  0  0
  -16.0660  -15.1270   21.1960 S   0  0  0  0  0  0  0  0  0  0  0  0
  -13.0360  -17.5850   21.3460 C   0  0  0  0  0  0  0  0  0  0  0  0
  -13.8950  -16.5250   21.0230 C   0  0  0  0  0  0  0  0  0  0  0  0
  -13.7540  -15.4610   20.2000 N   0  0  0  0  0  0  0  0  0  0  0  0
  -14.8010  -14.5970   20.1110 C   0  0  0  0  0  0  0  0  0  0  0  0
  -14.8120  -13.3130   19.2700 C   0  0  0  0  0  0  0  0  0  0  0  0
  -15.9870  -12.5120   19.0460 O   0  0  0  0  0  0  0  0  0  0  0  0
  -16.0990  -11.1650   19.3020 C   0  0  0  0  0  0  0  0  0  0  0  0
  -15.0840  -10.2200   19.2070 C   0  0  0  0  0  0  0  0  0  0  0  0
  -15.3170   -8.8860   19.5020 C   0  0  0  0  0  0  0  0  0  0  0  0
  -17.3520  -10.7170   19.6570 C   0  0  0  0  0  0  0  0  0  0  0  0
  -18.3070  -11.6120   19.7590 F   0  0  0  0  0  0  0  0  0  0  0  0
  -17.6090   -9.3850   19.9680 C   0  0  0  0  0  0  0  0  0  0  0  0
  -16.5730   -8.4780   19.9090 C   0  0  0  0  0  0  0  0  0  0  0  0
  -16.7860   -7.2060   20.2220 F   0  0  0  0  0  0  0  0  0  0  0  0
  -18.9700   -8.8820   20.3870 C   0  0  0  0  0  0  0  0  0  0  0  0
  -19.1070   -8.2860   21.4410 O   0  0  0  0  0  0  0  0  0  0  0  0
  -19.9990   -9.0810   19.5880 N   0  0  0  0  0  0  0  0  0  0  0  0
  -15.0764  -19.1805   23.5460 H   0  0  0  0  0  0  0  0  0  0  0  0
  -12.0396  -17.6494   20.8845 H   0  0  0  0  0  0  0  0  0  0  0  0
  -14.4553  -13.6063   18.2717 H   0  0  0  0  0  0  0  0  0  0  0  0
  -14.2156  -12.6403   19.9039 H   0  0  0  0  0  0  0  0  0  0  0  0
  -14.0786  -10.5364   18.8923 H   0  0  0  0  0  0  0  0  0  0  0  0
  -14.5024   -8.1523   19.4122 H   0  0  0  0  0  0  0  0  0  0  0  0
  -20.9321   -9.2614   19.9851 H   0  0  0  0  0  0  0  0  0  0  0  0
  -19.8701   -9.0561   18.5664 H   0  0  0  0  0  0  0  0  0  0  0  0
 15 14  1  0
 15 16  1  0
 17 16  2  0
 17 18  1  0
 14 13  1  0
 16 19  1  0
 18 22  2  0
 26 24  1  0
 19 20  1  0
 19 21  2  0
 22 21  1  0
 22 23  1  0
 21 24  1  0
 13 12  2  0
 13  9  1  0
 12 11  1  0
 24 25  2  0
 11 10  1  0
 11  8  2  0
  9  8  1  0
 10  5  2  0
  8  7  1  0
  3  2  1  0
  5  2  1  0
  5  6  1  0
  1  2  1  0
  7  6  2  0
  2  4  1  0
  6 27  1  0
 10 28  1  0
 14 29  1  0
 14 30  1  0
 17 31  1  0
 18 32  1  0
 26 33  1  0
 26 34  1  0
A    1
F5
A    2
C15
A    3
F3
A    4
F4
A    5
C12
A    6
C11
A    7
N3
A    8
C10
A    9
S1
A   10
C13
A   11
C14
A   12
N2
A   13
C9
A   14
C8
A   15
O2
A   16
C4
A   17
C5
A   18
C6
A   19
C3
A   20
F2
A   21
C2
A   22
C7
A   23
F1
A   24
C1
A   25
O1
A   26
N1
M  END
