1E8W_QUE_A_2095
     RDKit          3D

 32 34  0  0  0  0  0  0  0  0999 V2000
   17.3280   63.8540   22.2130 C   0  0  0  0  0  0  0  0  0  0  0  0
   17.6500   62.5220   22.8010 C   0  0  0  0  0  0  0  0  0  0  0  0
   18.9720   61.9470   22.7380 C   0  0  0  0  0  0  0  0  0  0  0  0
   19.8870   62.7610   22.0100 C   0  0  0  0  0  0  0  0  0  0  0  0
   19.6050   64.0500   21.4300 C   0  0  0  0  0  0  0  0  0  0  0  0
   18.3330   64.6600   21.5060 C   0  0  0  0  0  0  0  0  0  0  0  0
   19.4140   60.6480   23.3170 C   0  0  0  0  0  0  0  0  0  0  0  0
   20.7530   60.1900   23.2100 C   0  0  0  0  0  0  0  0  0  0  0  0
   21.6610   61.0870   22.4210 C   0  0  0  0  0  0  0  0  0  0  0  0
   23.0570   60.8510   22.1400 C   0  0  0  0  0  0  0  0  0  0  0  0
   23.8820   59.7540   22.6370 C   0  0  0  0  0  0  0  0  0  0  0  0
   25.2860   59.6570   22.2540 C   0  0  0  0  0  0  0  0  0  0  0  0
   25.8840   60.6120   21.3470 C   0  0  0  0  0  0  0  0  0  0  0  0
   25.0970   61.7010   20.8060 C   0  0  0  0  0  0  0  0  0  0  0  0
   23.7320   61.7850   21.2330 C   0  0  0  0  0  0  0  0  0  0  0  0
   21.1610   62.2980   21.8810 O   0  0  0  0  0  0  0  0  0  0  0  0
   18.6770   59.9140   23.9370 O   0  0  0  0  0  0  0  0  0  0  0  0
   25.6000   62.6310   19.9020 O   0  0  0  0  0  0  0  0  0  0  0  0
   27.2450   60.4850   20.9710 O   0  0  0  0  0  0  0  0  0  0  0  0
   21.0830   58.9730   23.8060 O   0  0  0  0  0  0  0  0  0  0  0  0
   18.1540   65.9470   20.9250 O   0  0  0  0  0  0  0  0  0  0  0  0
   16.6330   61.8640   23.4510 O   0  0  0  0  0  0  0  0  0  0  0  0
   16.3050   64.2460   22.3117 H   0  0  0  0  0  0  0  0  0  0  0  0
   20.4138   64.5808   20.9064 H   0  0  0  0  0  0  0  0  0  0  0  0
   23.4428   58.9971   23.3034 H   0  0  0  0  0  0  0  0  0  0  0  0
   25.9017   58.8422   22.6626 H   0  0  0  0  0  0  0  0  0  0  0  0
   23.1370   62.6253   20.8459 H   0  0  0  0  0  0  0  0  0  0  0  0
   26.0440   63.4520   20.2320 H   0  0  0  0  0  0  0  0  0  0  0  0
   27.9466   60.4195   21.6664 H   0  0  0  0  0  0  0  0  0  0  0  0
   21.1042   58.8947   24.7927 H   0  0  0  0  0  0  0  0  0  0  0  0
   18.0435   66.7412   21.5056 H   0  0  0  0  0  0  0  0  0  0  0  0
   16.6072   61.8473   24.4405 H   0  0  0  0  0  0  0  0  0  0  0  0
  1  2  2  0
  1  6  1  0
  2  3  1  0
  2 22  1  0
  3  4  2  0
  3  7  1  0
  4  5  1  0
  4 16  1  0
  5  6  2  0
  6 21  1  0
  7  8  1  0
  7 17  2  0
  8  9  2  0
  8 20  1  0
  9 10  1  0
  9 16  1  0
 10 11  2  0
 10 15  1  0
 11 12  1  0
 12 13  2  0
 13 14  1  0
 13 19  1  0
 14 15  2  0
 14 18  1  0
  1 23  1  0
  5 24  1  0
 11 25  1  0
 12 26  1  0
 15 27  1  0
 18 28  1  0
 19 29  1  0
 20 30  1  0
 21 31  1  0
 22 32  1  0
A    1
C1
A    2
C2
A    3
C3
A    4
C4
A    5
C5
A    6
C6
A    7
C9
A    8
C10
A    9
C11
A   10
C14
A   11
C15
A   12
C16
A   13
C17
A   14
C18
A   15
C19
A   16
O12
A   17
O13
A   18
O23
A   19
O24
A   20
O27
A   21
O29
A   22
O30
M  END
