5XI7_PO7_B_506
     RDKit          3D

 45 47  0  0  0  0  0  0  0  0999 V2000
  -18.9810   62.7050  -32.7650 F   0  0  0  0  0  0  0  0  0  0  0  0
  -18.6460   63.9790  -32.8540 C   0  0  0  0  0  0  0  0  0  0  0  0
  -18.8200   64.7300  -31.6940 C   0  0  0  0  0  0  0  0  0  0  0  0
  -18.4930   66.0800  -31.7070 C   0  0  0  0  0  0  0  0  0  0  0  0
  -17.9970   66.6650  -32.8720 C   0  0  0  0  0  0  0  0  0  0  0  0
  -17.6810   67.9000  -32.9090 F   0  0  0  0  0  0  0  0  0  0  0  0
  -17.8270   65.9260  -34.0260 C   0  0  0  0  0  0  0  0  0  0  0  0
  -18.1370   64.5640  -34.0460 C   0  0  0  0  0  0  0  0  0  0  0  0
  -17.9560   63.7970  -35.2070 C   0  0  0  0  0  0  0  0  0  0  0  0
  -17.2420   64.2490  -36.3340 C   0  0  0  0  0  0  0  0  0  0  0  0
  -17.6800   63.9300  -37.6240 C   0  0  0  0  0  0  0  0  0  0  0  0
  -18.6850   63.2470  -37.8260 O   0  0  0  0  0  0  0  0  0  0  0  0
  -16.9680   64.4000  -38.7490 N   0  0  0  0  0  0  0  0  0  0  0  0
  -16.0610   65.0290  -36.2210 N   0  0  0  0  0  0  0  0  0  0  0  0
  -15.3560   65.5040  -37.3450 C   0  0  0  0  0  0  0  0  0  0  0  0
  -14.3460   66.1770  -37.1340 O   0  0  0  0  0  0  0  0  0  0  0  0
  -15.8000   65.1960  -38.6410 C   0  0  0  0  0  0  0  0  0  0  0  0
  -15.1100   65.6460  -39.7870 C   0  0  0  0  0  0  0  0  0  0  0  0
  -15.6640   65.6370  -41.0160 C   0  0  0  0  0  0  0  0  0  0  0  0
  -16.5140   64.6950  -41.4090 N   0  0  0  0  0  0  0  0  0  0  0  0
  -16.8750   64.9490  -42.6660 C   0  0  0  0  0  0  0  0  0  0  0  0
  -16.2450   66.0470  -43.0670 N   0  0  0  0  0  0  0  0  0  0  0  0
  -15.4940   66.4850  -42.0470 C   0  0  0  0  0  0  0  0  0  0  0  0
  -14.5870   67.7480  -42.1150 C   0  0  0  0  0  0  0  0  0  0  0  0
  -14.9520   68.6220  -43.3130 C   0  0  0  0  0  0  0  0  0  0  0  0
  -13.1270   67.3090  -42.2730 C   0  0  0  0  0  0  0  0  0  0  0  0
  -14.7340   68.6130  -40.8540 C   0  0  0  0  0  0  0  0  0  0  0  0
  -19.2112   64.2602  -30.7795 H   0  0  0  0  0  0  0  0  0  0  0  0
  -18.6251   66.6872  -30.7993 H   0  0  0  0  0  0  0  0  0  0  0  0
  -17.4450   66.4129  -34.9354 H   0  0  0  0  0  0  0  0  0  0  0  0
  -18.3951   62.7889  -35.2388 H   0  0  0  0  0  0  0  0  0  0  0  0
  -17.3119   64.1540  -39.6882 H   0  0  0  0  0  0  0  0  0  0  0  0
  -15.7058   65.2564  -35.2813 H   0  0  0  0  0  0  0  0  0  0  0  0
  -14.0812   66.0182  -39.6731 H   0  0  0  0  0  0  0  0  0  0  0  0
  -16.8392   63.9018  -40.8381 H   0  0  0  0  0  0  0  0  0  0  0  0
  -17.5750   64.3515  -43.2685 H   0  0  0  0  0  0  0  0  0  0  0  0
  -15.3531   69.5825  -42.9574 H   0  0  0  0  0  0  0  0  0  0  0  0
  -14.0541   68.8026  -43.9222 H   0  0  0  0  0  0  0  0  0  0  0  0
  -15.7117   68.1104  -43.9222 H   0  0  0  0  0  0  0  0  0  0  0  0
  -12.6754   67.1732  -41.2792 H   0  0  0  0  0  0  0  0  0  0  0  0
  -13.0875   66.3593  -42.8266 H   0  0  0  0  0  0  0  0  0  0  0  0
  -12.5703   68.0795  -42.8266 H   0  0  0  0  0  0  0  0  0  0  0  0
  -14.6265   67.9802  -39.9607 H   0  0  0  0  0  0  0  0  0  0  0  0
  -13.9549   69.3896  -40.8492 H   0  0  0  0  0  0  0  0  0  0  0  0
  -15.7258   69.0886  -40.8492 H   0  0  0  0  0  0  0  0  0  0  0  0
 22 21  2  0
 22 23  1  0
 25 24  1  0
 21 20  1  0
 23 24  1  0
 23 19  2  0
 24 26  1  0
 24 27  1  0
 20 19  1  0
 19 18  1  0
 18 17  2  0
 13 17  1  0
 13 11  1  0
 17 15  1  0
 12 11  2  0
 11 10  1  0
 15 16  2  0
 15 14  1  0
 10 14  1  0
 10  9  2  0
  9  8  1  0
  8  7  1  0
  8  2  2  0
  7  5  2  0
  1  2  1  0
  2  3  1  0
  5  6  1  0
  5  4  1  0
  3  4  2  0
  3 28  1  0
  4 29  1  0
  7 30  1  0
  9 31  1  0
 13 32  1  0
 14 33  1  0
 18 34  1  0
 20 35  1  0
 21 36  1  0
 25 37  1  0
 25 38  1  0
 25 39  1  0
 26 40  1  0
 26 41  1  0
 26 42  1  0
 27 43  1  0
 27 44  1  0
 27 45  1  0
A    1
FAG
A    2
CAS
A    3
CAK
A    4
CAJ
A    5
CAR
A    6
FAF
A    7
CAM
A    8
CAT
A    9
CAH
A   10
CAY
A   11
CAW
A   12
OAD
A   13
NAQ
A   14
NAP
A   15
CAX
A   16
OAE
A   17
CAZ
A   18
CAI
A   19
CAU
A   20
NAN
A   21
CAL
A   22
NAO
A   23
CAV
A   24
CBA
A   25
CAB
A   26
CAC
A   27
CAA
M  END
