5XKM_87R_A_2004
     RDKit          3D

 44 46  0  0  0  0  0  0  0  0999 V2000
    5.5100   -1.3270    6.7230 C   0  0  0  0  0  0  0  0  0  0  0  0
    7.2000   -0.5920    8.2340 C   0  0  0  0  0  0  0  0  0  0  0  0
    6.4690   -1.9230    5.9350 C   0  0  0  0  0  0  0  0  0  0  0  0
    8.1700   -1.1820    7.4560 C   0  0  0  0  0  0  0  0  0  0  0  0
    5.2040    4.7850    9.9390 C   0  0  0  0  0  0  0  0  0  0  0  0
    5.4270    3.3890   10.0320 C   0  0  0  0  0  0  0  0  0  0  0  0
    5.8700   -0.6590    7.8750 C   0  0  0  0  0  0  0  0  0  0  0  0
    7.7950   -1.8400    6.3060 C   0  0  0  0  0  0  0  0  0  0  0  0
    6.1220    3.2210   11.2100 C   0  0  0  0  0  0  0  0  0  0  0  0
    6.8850    4.8210   12.8940 C   0  0  0  0  0  0  0  0  0  0  0  0
    7.1970    2.3680   12.9920 C   0  0  0  0  0  0  0  0  0  0  0  0
    7.3480    3.5820   13.5340 C   0  0  0  0  0  0  0  0  0  0  0  0
    5.0150    2.3800    9.0910 C   0  0  0  0  0  0  0  0  0  0  0  0
    8.0290    3.7230   14.8420 C   0  0  0  0  0  0  0  0  0  0  0  0
    3.2140   -0.5250   10.5930 C   0  0  0  0  0  0  0  0  0  0  0  0
    4.2800   -1.0780    9.6770 C   0  0  0  0  0  0  0  0  0  0  0  0
    4.8190   -0.0230    8.7280 C   0  0  0  0  0  0  0  0  0  0  0  0
    9.3280   -1.4950    4.6250 C   0  0  0  0  0  0  0  0  0  0  0  0
    5.7130    5.4510   10.9770 N   0  0  0  0  0  0  0  0  0  0  0  0
    6.6160    2.1410   11.8540 N   0  0  0  0  0  0  0  0  0  0  0  0
    6.2610    4.4800   11.7220 N   0  0  0  0  0  0  0  0  0  0  0  0
    5.3380    1.1030    9.4650 N   0  0  0  0  0  0  0  0  0  0  0  0
    4.4300    2.6750    8.0590 O   0  0  0  0  0  0  0  0  0  0  0  0
    8.7590   -2.4460    5.5210 O   0  0  0  0  0  0  0  0  0  0  0  0
    9.9450   -0.4600    5.2550 F   0  0  0  0  0  0  0  0  0  0  0  0
    8.4030   -0.9850    3.7770 F   0  0  0  0  0  0  0  0  0  0  0  0
   10.2550   -2.1640    3.8970 F   0  0  0  0  0  0  0  0  0  0  0  0
    4.4507   -1.3839    6.4322 H   0  0  0  0  0  0  0  0  0  0  0  0
    7.4889   -0.0608    9.1529 H   0  0  0  0  0  0  0  0  0  0  0  0
    6.1807   -2.4598    5.0191 H   0  0  0  0  0  0  0  0  0  0  0  0
    9.2291   -1.1287    7.7485 H   0  0  0  0  0  0  0  0  0  0  0  0
    4.6713    5.2655    9.1051 H   0  0  0  0  0  0  0  0  0  0  0  0
    7.0158    5.8406   13.2856 H   0  0  0  0  0  0  0  0  0  0  0  0
    7.5916    1.5049   13.5481 H   0  0  0  0  0  0  0  0  0  0  0  0
    7.3009    3.5722   15.6526 H   0  0  0  0  0  0  0  0  0  0  0  0
    8.8280    2.9712   14.9223 H   0  0  0  0  0  0  0  0  0  0  0  0
    8.4638    4.7302   14.9223 H   0  0  0  0  0  0  0  0  0  0  0  0
    3.5135   -0.6804   11.6400 H   0  0  0  0  0  0  0  0  0  0  0  0
    3.0896    0.5513   10.4031 H   0  0  0  0  0  0  0  0  0  0  0  0
    2.2625   -1.0432   10.4031 H   0  0  0  0  0  0  0  0  0  0  0  0
    3.8490   -1.8998    9.0863 H   0  0  0  0  0  0  0  0  0  0  0  0
    5.1141   -1.4308   10.3013 H   0  0  0  0  0  0  0  0  0  0  0  0
    4.0146    0.3631    8.0847 H   0  0  0  0  0  0  0  0  0  0  0  0
    5.9538    0.9459   10.2756 H   0  0  0  0  0  0  0  0  0  0  0  0
 26 18  1  0
 27 18  1  0
 18 25  1  0
 18 24  1  0
 24  8  1  0
  3  8  1  0
  3  1  2  0
  8  4  2  0
  1  7  1  0
  4  2  1  0
  7  2  2  0
  7 17  1  0
 23 13  2  0
 17 22  1  0
 17 16  1  0
 13 22  1  0
 13  6  1  0
 16 15  1  0
  6  5  1  0
  6  9  2  0
  5 19  2  0
 19 21  1  0
  9 20  1  0
  9 21  1  0
 20 11  2  0
 21 10  1  0
 11 12  1  0
 10 12  2  0
 12 14  1  0
  1 28  1  0
  2 29  1  0
  3 30  1  0
  4 31  1  0
  5 32  1  0
 10 33  1  0
 11 34  1  0
 14 35  1  0
 14 36  1  0
 14 37  1  0
 15 38  1  0
 15 39  1  0
 15 40  1  0
 16 41  1  0
 16 42  1  0
 17 43  1  0
 22 44  1  0
A    1
C18
A    2
C22
A    3
C19
A    4
C21
A    5
C1
A    6
C2
A    7
C17
A    8
C20
A    9
C3
A   10
C6
A   11
C8
A   12
C7
A   13
C11
A   14
C10
A   15
C16
A   16
C15
A   17
C14
A   18
C24
A   19
N5
A   20
N9
A   21
N4
A   22
N13
A   23
O12
A   24
O23
A   25
F25
A   26
F26
A   27
F27
M  END
