5XLT_89O_B_505
     RDKit          3D

 49 53  0  0  0  0  0  0  0  0999 V2000
   17.5400  -63.4890  -43.7090 C   0  0  0  0  0  0  0  0  0  0  0  0
   17.2880  -65.4770  -39.9080 C   0  0  0  0  0  0  0  0  0  0  0  0
   14.8980  -66.1430  -39.5860 C   0  0  0  0  0  0  0  0  0  0  0  0
   13.2730  -66.4230  -42.9220 C   0  0  0  0  0  0  0  0  0  0  0  0
   16.4910  -66.5900  -36.8080 C   0  0  0  0  0  0  0  0  0  0  0  0
   19.6540  -68.8940  -43.5700 C   0  0  0  0  0  0  0  0  0  0  0  0
   19.1170  -66.9500  -45.1870 C   0  0  0  0  0  0  0  0  0  0  0  0
   18.9260  -67.6070  -43.8020 C   0  0  0  0  0  0  0  0  0  0  0  0
   19.3660  -66.6820  -42.5370 C   0  0  0  0  0  0  0  0  0  0  0  0
   18.5080  -65.4510  -42.2410 C   0  0  0  0  0  0  0  0  0  0  0  0
   18.1480  -64.7550  -43.7320 C   0  0  0  0  0  0  0  0  0  0  0  0
   18.4080  -65.4540  -45.1540 C   0  0  0  0  0  0  0  0  0  0  0  0
   18.0390  -64.7540  -46.3300 C   0  0  0  0  0  0  0  0  0  0  0  0
   17.3750  -63.3410  -46.2640 C   0  0  0  0  0  0  0  0  0  0  0  0
   17.1320  -62.7260  -45.0300 C   0  0  0  0  0  0  0  0  0  0  0  0
   16.5320  -61.4550  -45.2580 O   0  0  0  0  0  0  0  0  0  0  0  0
   16.5890  -61.2230  -46.6990 C   0  0  0  0  0  0  0  0  0  0  0  0
   16.9400  -62.4820  -47.3120 O   0  0  0  0  0  0  0  0  0  0  0  0
   17.2780  -65.7110  -41.3050 C   0  0  0  0  0  0  0  0  0  0  0  0
   16.1610  -65.6790  -39.0350 C   0  0  0  0  0  0  0  0  0  0  0  0
   14.8190  -66.3790  -41.0230 C   0  0  0  0  0  0  0  0  0  0  0  0
   16.0140  -66.1410  -41.7990 C   0  0  0  0  0  0  0  0  0  0  0  0
   13.5900  -66.8300  -41.5850 O   0  0  0  0  0  0  0  0  0  0  0  0
   13.7760  -66.3570  -38.7820 O   0  0  0  0  0  0  0  0  0  0  0  0
   16.2350  -65.4560  -37.6400 O   0  0  0  0  0  0  0  0  0  0  0  0
   19.6330  -67.5020  -41.3570 C   0  0  0  0  0  0  0  0  0  0  0  0
   19.7520  -67.0610  -40.2580 O   0  0  0  0  0  0  0  0  0  0  0  0
   19.7260  -68.9480  -42.1430 O   0  0  0  0  0  0  0  0  0  0  0  0
   20.4670  -66.9170  -45.5880 O   0  0  0  0  0  0  0  0  0  0  0  0
   17.3413  -63.0128  -42.7376 H   0  0  0  0  0  0  0  0  0  0  0  0
   18.2240  -65.1149  -39.4577 H   0  0  0  0  0  0  0  0  0  0  0  0
   12.5973  -65.5555  -42.8907 H   0  0  0  0  0  0  0  0  0  0  0  0
   14.1977  -66.1486  -43.4508 H   0  0  0  0  0  0  0  0  0  0  0  0
   12.7806  -67.2524  -43.4508 H   0  0  0  0  0  0  0  0  0  0  0  0
   16.4237  -66.2921  -35.7512 H   0  0  0  0  0  0  0  0  0  0  0  0
   15.7470  -67.3730  -37.0163 H   0  0  0  0  0  0  0  0  0  0  0  0
   17.4992  -66.9775  -37.0163 H   0  0  0  0  0  0  0  0  0  0  0  0
   19.0913  -69.7487  -43.9735 H   0  0  0  0  0  0  0  0  0  0  0  0
   20.6360  -68.9407  -44.0635 H   0  0  0  0  0  0  0  0  0  0  0  0
   18.6220  -67.5608  -45.9564 H   0  0  0  0  0  0  0  0  0  0  0  0
   17.8393  -67.7720  -43.8459 H   0  0  0  0  0  0  0  0  0  0  0  0
   20.3061  -66.2118  -42.8613 H   0  0  0  0  0  0  0  0  0  0  0  0
   19.0697  -64.7352  -41.6228 H   0  0  0  0  0  0  0  0  0  0  0  0
   18.2242  -65.2158  -47.3111 H   0  0  0  0  0  0  0  0  0  0  0  0
   17.3509  -60.4641  -46.9303 H   0  0  0  0  0  0  0  0  0  0  0  0
   15.6236  -60.8559  -47.0776 H   0  0  0  0  0  0  0  0  0  0  0  0
   15.9396  -66.3094  -42.8835 H   0  0  0  0  0  0  0  0  0  0  0  0
   13.8631  -66.3404  -37.7960 H   0  0  0  0  0  0  0  0  0  0  0  0
   21.0489  -66.9028  -44.7872 H   0  0  0  0  0  0  0  0  0  0  0  0
 18 17  1  0
 18 14  1  0
 17 16  1  0
 13 14  2  0
 13 12  1  0
 14 15  1  0
 29  7  1  0
  7 12  1  0
  7  8  1  0
 16 15  1  0
 12 11  2  0
 15  1  2  0
  8  6  1  0
  8  9  1  0
  6 28  1  0
 11  1  1  0
 11 10  1  0
  4 23  1  0
  9 10  1  0
  9 26  1  0
 10 19  1  0
 28 26  1  0
 22 19  1  0
 22 21  2  0
 23 21  1  0
 26 27  2  0
 19  2  2  0
 21  3  1  0
  2 20  1  0
  3 20  2  0
  3 24  1  0
 20 25  1  0
 25  5  1  0
  1 30  1  0
  2 31  1  0
  4 32  1  0
  4 33  1  0
  4 34  1  0
  5 35  1  0
  5 36  1  0
  5 37  1  0
  6 38  1  0
  6 39  1  0
  7 40  1  0
  8 41  1  0
  9 42  1  0
 10 43  1  0
 13 44  1  0
 17 45  1  0
 17 46  1  0
 22 47  1  0
 24 48  1  0
 29 49  1  0
A    1
C10
A    2
C15
A    3
C17
A    4
C21
A    5
C24
A    6
C28
A    7
C01
A    8
C02
A    9
C03
A   10
C04
A   11
C05
A   12
C06
A   13
C07
A   14
C08
A   15
C09
A   16
O11
A   17
C12
A   18
O13
A   19
C14
A   20
C16
A   21
C18
A   22
C19
A   23
O20
A   24
O22
A   25
O23
A   26
C25
A   27
O26
A   28
O27
A   29
O29
M  END
