5XPR_K86_A_1201
     RDKit          3D

 68 71  0  0  0  0  0  0  0  0999 V2000
  -34.0620    7.7650   13.4100 C   0  0  0  0  0  0  0  0  0  0  0  0
  -32.0680    4.2240   10.5240 C   0  0  0  0  0  0  0  0  0  0  0  0
  -30.4830    4.5160    8.7730 C   0  0  0  0  0  0  0  0  0  0  0  0
  -29.1760    5.9710   11.9210 C   0  0  0  0  0  0  0  0  0  0  0  0
  -27.6180    7.1600   13.7150 C   0  0  0  0  0  0  0  0  0  0  0  0
  -29.8570    5.5830    6.7710 C   0  0  0  0  0  0  0  0  0  0  0  0
  -31.6170    9.9680   14.6440 C   0  0  0  0  0  0  0  0  0  0  0  0
  -32.9970    9.4320   15.0120 C   0  0  0  0  0  0  0  0  0  0  0  0
  -34.0570   10.3710   14.4360 C   0  0  0  0  0  0  0  0  0  0  0  0
  -33.1300    9.3980   16.5330 C   0  0  0  0  0  0  0  0  0  0  0  0
  -33.1580    8.0130   14.4340 C   0  0  0  0  0  0  0  0  0  0  0  0
  -32.3880    6.9740   14.9400 C   0  0  0  0  0  0  0  0  0  0  0  0
  -32.5200    5.6890   14.4280 C   0  0  0  0  0  0  0  0  0  0  0  0
  -33.4250    5.4470   13.4100 C   0  0  0  0  0  0  0  0  0  0  0  0
  -34.1960    6.4790   12.8960 C   0  0  0  0  0  0  0  0  0  0  0  0
  -33.5880    3.7550   12.7470 S   0  0  0  0  0  0  0  0  0  0  0  0
  -34.8850    3.1720   13.0950 O   0  0  0  0  0  0  0  0  0  0  0  0
  -32.6580    2.8580   13.4360 O   0  0  0  0  0  0  0  0  0  0  0  0
  -33.3430    3.7500   11.0510 N   0  0  0  0  0  0  0  0  0  0  0  0
  -31.7240    4.0270    9.1930 C   0  0  0  0  0  0  0  0  0  0  0  0
  -29.6950    5.1230    9.6520 N   0  0  0  0  0  0  0  0  0  0  0  0
  -30.0800    5.2750   10.9060 C   0  0  0  0  0  0  0  0  0  0  0  0
  -31.2400    4.8340   11.3440 N   0  0  0  0  0  0  0  0  0  0  0  0
  -29.1130    5.4770   13.1440 N   0  0  0  0  0  0  0  0  0  0  0  0
  -28.3510    6.0350   14.0680 C   0  0  0  0  0  0  0  0  0  0  0  0
  -27.7100    7.6560   12.4200 C   0  0  0  0  0  0  0  0  0  0  0  0
  -28.4950    7.0400   11.5540 N   0  0  0  0  0  0  0  0  0  0  0  0
  -30.0540    4.3670    7.4430 O   0  0  0  0  0  0  0  0  0  0  0  0
  -28.3680    5.9330    6.7940 C   0  0  0  0  0  0  0  0  0  0  0  0
  -28.2490    7.3250    6.6890 O   0  0  0  0  0  0  0  0  0  0  0  0
  -32.6180    3.3820    8.3310 O   0  0  0  0  0  0  0  0  0  0  0  0
  -32.4730    1.9860    8.3510 C   0  0  0  0  0  0  0  0  0  0  0  0
  -31.4420    1.3710    9.0400 C   0  0  0  0  0  0  0  0  0  0  0  0
  -31.3250   -0.0110    9.0320 C   0  0  0  0  0  0  0  0  0  0  0  0
  -32.2410   -0.7860    8.3410 C   0  0  0  0  0  0  0  0  0  0  0  0
  -33.2700   -0.1700    7.6520 C   0  0  0  0  0  0  0  0  0  0  0  0
  -33.3870    1.2090    7.6610 C   0  0  0  0  0  0  0  0  0  0  0  0
  -34.4340    1.8250    6.9750 O   0  0  0  0  0  0  0  0  0  0  0  0
  -34.1960    2.0120    5.6170 C   0  0  0  0  0  0  0  0  0  0  0  0
  -34.6725    8.5854   13.0049 H   0  0  0  0  0  0  0  0  0  0  0  0
  -26.9701    7.6544   14.4538 H   0  0  0  0  0  0  0  0  0  0  0  0
  -30.4298    6.3774    7.2718 H   0  0  0  0  0  0  0  0  0  0  0  0
  -30.1995    5.4904    5.7298 H   0  0  0  0  0  0  0  0  0  0  0  0
  -31.0521   10.1874   15.5620 H   0  0  0  0  0  0  0  0  0  0  0  0
  -31.0767    9.2143   14.0523 H   0  0  0  0  0  0  0  0  0  0  0  0
  -31.7271   10.8888   14.0523 H   0  0  0  0  0  0  0  0  0  0  0  0
  -34.6037   10.8553   15.2585 H   0  0  0  0  0  0  0  0  0  0  0  0
  -33.5694   11.1390   13.8175 H   0  0  0  0  0  0  0  0  0  0  0  0
  -34.7605    9.7944   13.8175 H   0  0  0  0  0  0  0  0  0  0  0  0
  -32.1612    9.6457   16.9914 H   0  0  0  0  0  0  0  0  0  0  0  0
  -33.8847   10.1321   16.8516 H   0  0  0  0  0  0  0  0  0  0  0  0
  -33.4398    8.3918   16.8516 H   0  0  0  0  0  0  0  0  0  0  0  0
  -31.6700    7.1692   15.7502 H   0  0  0  0  0  0  0  0  0  0  0  0
  -31.9079    4.8682   14.8301 H   0  0  0  0  0  0  0  0  0  0  0  0
  -34.9115    6.2813   12.0842 H   0  0  0  0  0  0  0  0  0  0  0  0
  -34.0825    3.4184   10.4153 H   0  0  0  0  0  0  0  0  0  0  0  0
  -28.2990    5.6209   15.0857 H   0  0  0  0  0  0  0  0  0  0  0  0
  -27.1385    8.5470   12.1209 H   0  0  0  0  0  0  0  0  0  0  0  0
  -27.8578    5.4498    5.9477 H   0  0  0  0  0  0  0  0  0  0  0  0
  -27.9066    5.5793    7.7278 H   0  0  0  0  0  0  0  0  0  0  0  0
  -28.2150    7.7226    7.5950 H   0  0  0  0  0  0  0  0  0  0  0  0
  -30.7135    1.9800    9.5954 H   0  0  0  0  0  0  0  0  0  0  0  0
  -30.5005   -0.4937    9.5772 H   0  0  0  0  0  0  0  0  0  0  0  0
  -32.1511   -1.8823    8.3400 H   0  0  0  0  0  0  0  0  0  0  0  0
  -33.9979   -0.7782    7.0950 H   0  0  0  0  0  0  0  0  0  0  0  0
  -33.3373    2.6867    5.4847 H   0  0  0  0  0  0  0  0  0  0  0  0
  -33.9764    1.0424    5.1463 H   0  0  0  0  0  0  0  0  0  0  0  0
  -35.0861    2.4548    5.1463 H   0  0  0  0  0  0  0  0  0  0  0  0
 39 38  1  0
 30 29  1  0
  6 29  1  0
  6 28  1  0
 38 37  1  0
 28  3  1  0
 37 36  2  0
 37 32  1  0
 36 35  1  0
 31 32  1  0
 31 20  1  0
 32 33  2  0
 35 34  2  0
  3 20  2  0
  3 21  1  0
 33 34  1  0
 20  2  1  0
 21 22  2  0
  2 19  1  0
  2 23  2  0
 22 23  1  0
 22  4  1  0
 19 16  1  0
 27  4  2  0
 27 26  1  0
  4 24  1  0
 26  5  2  0
 16 17  2  0
 16 18  2  0
 16 14  1  0
 15  1  2  0
 15 14  1  0
 24 25  2  0
  1 11  1  0
 14 13  2  0
  5 25  1  0
 11  8  1  0
 11 12  2  0
  9  8  1  0
 13 12  1  0
  7  8  1  0
  8 10  1  0
  1 40  1  0
  5 41  1  0
  6 42  1  0
  6 43  1  0
  7 44  1  0
  7 45  1  0
  7 46  1  0
  9 47  1  0
  9 48  1  0
  9 49  1  0
 10 50  1  0
 10 51  1  0
 10 52  1  0
 12 53  1  0
 13 54  1  0
 15 55  1  0
 19 56  1  0
 25 57  1  0
 26 58  1  0
 29 59  1  0
 29 60  1  0
 30 61  1  0
 33 62  1  0
 34 63  1  0
 35 64  1  0
 36 65  1  0
 39 66  1  0
 39 67  1  0
 39 68  1  0
A    1
C10
A    2
C15
A    3
C17
A    4
C21
A    5
C24
A    6
C28
A    7
C1
A    8
C2
A    9
C3
A   10
C4
A   11
C5
A   12
C6
A   13
C7
A   14
C8
A   15
C9
A   16
S11
A   17
O12
A   18
O13
A   19
N14
A   20
C16
A   21
N18
A   22
C19
A   23
N20
A   24
N22
A   25
C23
A   26
C25
A   27
N26
A   28
O27
A   29
C29
A   30
O30
A   31
O31
A   32
C32
A   33
C33
A   34
C34
A   35
C35
A   36
C36
A   37
C37
A   38
O38
A   39
C39
M  END
