5XQX_8CC_A_402
     RDKit          3D

 26 27  0  0  0  0  0  0  0  0999 V2000
   -8.2890  -10.9830   11.0210 C   0  0  0  0  0  0  0  0  0  0  0  0
   -9.0950   -9.9660   11.6290 C   0  0  0  0  0  0  0  0  0  0  0  0
   -3.3490  -15.8340   11.9360 C   0  0  0  0  0  0  0  0  0  0  0  0
   -4.4110  -14.8500   11.8450 N   0  0  0  0  0  0  0  0  0  0  0  0
   -5.3390  -14.6260   12.9250 C   0  0  0  0  0  0  0  0  0  0  0  0
   -5.3220  -15.2220   13.9840 O   0  0  0  0  0  0  0  0  0  0  0  0
   -6.3780  -13.5800   12.7420 C   0  0  0  0  0  0  0  0  0  0  0  0
   -6.6290  -12.8470   11.5750 C   0  0  0  0  0  0  0  0  0  0  0  0
   -7.6980  -12.0050   11.8830 C   0  0  0  0  0  0  0  0  0  0  0  0
   -8.0380  -12.2070   13.2500 C   0  0  0  0  0  0  0  0  0  0  0  0
   -7.2220  -13.1920   13.7470 N   0  0  0  0  0  0  0  0  0  0  0  0
   -7.9630  -10.8720    9.6650 C   0  0  0  0  0  0  0  0  0  0  0  0
   -8.5230   -9.7740    8.9530 C   0  0  0  0  0  0  0  0  0  0  0  0
   -9.3420   -8.8490    9.5640 N   0  0  0  0  0  0  0  0  0  0  0  0
   -9.6240   -8.9070   10.8860 C   0  0  0  0  0  0  0  0  0  0  0  0
   -9.3026  -10.0202   12.7079 H   0  0  0  0  0  0  0  0  0  0  0  0
   -3.1283  -16.0385   12.9940 H   0  0  0  0  0  0  0  0  0  0  0  0
   -3.6671  -16.7636   11.4415 H   0  0  0  0  0  0  0  0  0  0  0  0
   -2.4463  -15.4460   11.4415 H   0  0  0  0  0  0  0  0  0  0  0  0
   -4.5048  -14.2946   10.9826 H   0  0  0  0  0  0  0  0  0  0  0  0
   -6.0949  -12.9200   10.6161 H   0  0  0  0  0  0  0  0  0  0  0  0
   -8.8173  -11.6687   13.8094 H   0  0  0  0  0  0  0  0  0  0  0  0
   -7.2413  -13.5712   14.7045 H   0  0  0  0  0  0  0  0  0  0  0  0
   -7.3034  -11.6007    9.1711 H   0  0  0  0  0  0  0  0  0  0  0  0
   -8.2953   -9.6603    7.8829 H   0  0  0  0  0  0  0  0  0  0  0  0
  -10.2529   -8.1411   11.3633 H   0  0  0  0  0  0  0  0  0  0  0  0
 13 14  2  0
 13 12  1  0
 14 15  1  0
 12  1  2  0
 15  2  2  0
  1  2  1  0
  1  9  1  0
  8  9  1  0
  8  7  2  0
  4  3  1  0
  4  5  1  0
  9 10  2  0
  7  5  1  0
  7 11  1  0
  5  6  2  0
 10 11  1  0
  2 16  1  0
  3 17  1  0
  3 18  1  0
  3 19  1  0
  4 20  1  0
  8 21  1  0
 10 22  1  0
 11 23  1  0
 12 24  1  0
 13 25  1  0
 15 26  1  0
A    1
C10
A    2
C15
A    3
C01
A    4
N02
A    5
C03
A    6
O04
A    7
C05
A    8
C06
A    9
C07
A   10
C08
A   11
N09
A   12
C11
A   13
C12
A   14
N13
A   15
C14
M  END
