5X23_LSN_A_502
     RDKit          3D

 53 56  0  0  0  0  0  0  0  0999 V2000
   26.2020    6.2390   28.5780 Cl  0  0  0  0  0  0  0  0  0  0  0  0
   25.9380    7.5920   29.6740 C   0  0  0  0  0  0  0  0  0  0  0  0
   24.8040    8.6660   29.5530 C   0  0  0  0  0  0  0  0  0  0  0  0
   23.7750    8.8530   28.4380 C   0  0  0  0  0  0  0  0  0  0  0  0
   24.1930    9.7470   27.4140 O   0  0  0  0  0  0  0  0  0  0  0  0
   26.9350    8.0100   30.6390 N   0  0  0  0  0  0  0  0  0  0  0  0
   26.3730    9.1550   31.2950 C   0  0  0  0  0  0  0  0  0  0  0  0
   27.1620    9.8680   32.3820 C   0  0  0  0  0  0  0  0  0  0  0  0
   27.7700    8.8690   33.3790 C   0  0  0  0  0  0  0  0  0  0  0  0
   26.8910    7.6670   33.7410 C   0  0  0  0  0  0  0  0  0  0  0  0
   27.1280    7.1930   35.1510 C   0  0  0  0  0  0  0  0  0  0  0  0
   25.2700    9.6530   30.4660 N   0  0  0  0  0  0  0  0  0  0  0  0
   24.4780   10.7990   30.6640 C   0  0  0  0  0  0  0  0  0  0  0  0
   25.0710   11.7790   29.6640 C   0  0  0  0  0  0  0  0  0  0  0  0
   26.5790   11.9810   29.4880 C   0  0  0  0  0  0  0  0  0  0  0  0
   27.0310   13.1740   28.6250 C   0  0  0  0  0  0  0  0  0  0  0  0
   24.0330   12.8050   29.3400 C   0  0  0  0  0  0  0  0  0  0  0  0
   24.4770   13.9410   28.4930 C   0  0  0  0  0  0  0  0  0  0  0  0
   25.9100   14.0510   28.0180 C   0  0  0  0  0  0  0  0  0  0  0  0
   26.2380   15.3520   27.2840 C   0  0  0  0  0  0  0  0  0  0  0  0
   25.5970   16.5740   27.8550 C   0  0  0  0  0  0  0  0  0  0  0  0
   25.9790   17.9020   27.2650 C   0  0  0  0  0  0  0  0  0  0  0  0
   27.1200   18.0000   26.2800 C   0  0  0  0  0  0  0  0  0  0  0  0
   27.8750   16.7750   25.8120 C   0  0  0  0  0  0  0  0  0  0  0  0
   27.5420   15.4790   26.5250 C   0  0  0  0  0  0  0  0  0  0  0  0
   28.1850   14.2180   25.9650 C   0  0  0  0  0  0  0  0  0  0  0  0
   27.4470   13.1980   25.2420 N   0  0  0  0  0  0  0  0  0  0  0  0
   29.5100   13.7930   26.3610 N   0  0  0  0  0  0  0  0  0  0  0  0
   29.5130   12.6310   25.7290 N   0  0  0  0  0  0  0  0  0  0  0  0
   28.3730   12.2810   25.0980 N   0  0  0  0  0  0  0  0  0  0  0  0
   22.8487    9.2448   28.8834 H   0  0  0  0  0  0  0  0  0  0  0  0
   23.6326    7.8698   27.9658 H   0  0  0  0  0  0  0  0  0  0  0  0
   24.5746   10.5632   27.8241 H   0  0  0  0  0  0  0  0  0  0  0  0
   27.9729   10.4463   31.9150 H   0  0  0  0  0  0  0  0  0  0  0  0
   26.4761   10.5307   32.9301 H   0  0  0  0  0  0  0  0  0  0  0  0
   28.7043    8.4846   32.9438 H   0  0  0  0  0  0  0  0  0  0  0  0
   27.9089    9.4294   34.3153 H   0  0  0  0  0  0  0  0  0  0  0  0
   25.8348    7.9565   33.6374 H   0  0  0  0  0  0  0  0  0  0  0  0
   27.1488    6.8427   33.0598 H   0  0  0  0  0  0  0  0  0  0  0  0
   26.7515    7.9459   35.8591 H   0  0  0  0  0  0  0  0  0  0  0  0
   26.5994    6.2418   35.3118 H   0  0  0  0  0  0  0  0  0  0  0  0
   28.2061    7.0451   35.3118 H   0  0  0  0  0  0  0  0  0  0  0  0
   24.5714   11.1749   31.6936 H   0  0  0  0  0  0  0  0  0  0  0  0
   23.4019   10.6209   30.5213 H   0  0  0  0  0  0  0  0  0  0  0  0
   27.3075   11.3036   29.9575 H   0  0  0  0  0  0  0  0  0  0  0  0
   28.0950   13.3912   28.4494 H   0  0  0  0  0  0  0  0  0  0  0  0
   22.9996   12.7231   29.7079 H   0  0  0  0  0  0  0  0  0  0  0  0
   23.7516   14.7164   28.2056 H   0  0  0  0  0  0  0  0  0  0  0  0
   24.8709   16.5043   28.6784 H   0  0  0  0  0  0  0  0  0  0  0  0
   25.4247   18.8078   27.5519 H   0  0  0  0  0  0  0  0  0  0  0  0
   27.4097   18.9880   25.8927 H   0  0  0  0  0  0  0  0  0  0  0  0
   28.6199   16.8219   25.0039 H   0  0  0  0  0  0  0  0  0  0  0  0
   30.3446   12.0234   25.7191 H   0  0  0  0  0  0  0  0  0  0  0  0
 30 27  2  0
 30 29  1  0
 27 26  1  0
 29 28  1  0
 24 23  2  0
 24 25  1  0
 26 28  2  0
 26 25  1  0
 23 22  1  0
 25 20  2  0
 22 21  2  0
 20 21  1  0
 20 19  1  0
  5  4  1  0
 19 18  2  0
 19 16  1  0
  4  3  1  0
 18 17  1  0
  1  2  1  0
 16 15  2  0
 17 14  2  0
 15 14  1  0
  3  2  2  0
  3 12  1  0
 14 13  1  0
  2  6  1  0
 12 13  1  0
 12  7  1  0
  6  7  2  0
  7  8  1  0
  8  9  1  0
  9 10  1  0
 10 11  1  0
  4 31  1  0
  4 32  1  0
  5 33  1  0
  8 34  1  0
  8 35  1  0
  9 36  1  0
  9 37  1  0
 10 38  1  0
 10 39  1  0
 11 40  1  0
 11 41  1  0
 11 42  1  0
 13 43  1  0
 13 44  1  0
 15 45  1  0
 16 46  1  0
 17 47  1  0
 18 48  1  0
 21 49  1  0
 22 50  1  0
 23 51  1  0
 24 52  1  0
 29 53  1  0
A    1
CL
A    2
C17
A    3
C15
A    4
C16
A    5
O
A    6
N6
A    7
C18
A    8
C19
A    9
C20
A   10
C21
A   11
C22
A   12
N5
A   13
C12
A   14
C11
A   15
C10
A   16
C9
A   17
C13
A   18
C14
A   19
C8
A   20
C7
A   21
C6
A   22
C5
A   23
C4
A   24
C3
A   25
C2
A   26
C1
A   27
N1
A   28
N4
A   29
N3
A   30
N2
M  END
