5XZB_A9Y_A_602
     RDKit          3D

 40 44  0  0  0  0  0  0  0  0999 V2000
  115.0250  111.1080  170.6660 C   0  0  0  0  0  0  0  0  0  0  0  0
  116.1920  111.2860  171.3980 C   0  0  0  0  0  0  0  0  0  0  0  0
  116.2670  110.6880  172.6470 C   0  0  0  0  0  0  0  0  0  0  0  0
  115.1640  109.9680  173.0890 C   0  0  0  0  0  0  0  0  0  0  0  0
  114.0660  109.8060  172.3340 C   0  0  0  0  0  0  0  0  0  0  0  0
  114.0060  110.3890  171.1350 C   0  0  0  0  0  0  0  0  0  0  0  0
  112.8080  110.1100  170.6350 C   0  0  0  0  0  0  0  0  0  0  0  0
  112.4840  110.4530  169.5050 O   0  0  0  0  0  0  0  0  0  0  0  0
  111.9490  109.5580  171.5250 O   0  0  0  0  0  0  0  0  0  0  0  0
  112.8360  109.1210  172.5570 C   0  0  0  0  0  0  0  0  0  0  0  0
  112.8760  107.7000  172.5280 C   0  0  0  0  0  0  0  0  0  0  0  0
  111.8970  106.9820  172.0010 C   0  0  0  0  0  0  0  0  0  0  0  0
  110.7570  107.4010  171.3950 O   0  0  0  0  0  0  0  0  0  0  0  0
  113.7330  106.7750  172.9840 C   0  0  0  0  0  0  0  0  0  0  0  0
  115.0750  106.8630  173.7140 C   0  0  0  0  0  0  0  0  0  0  0  0
  113.2300  105.5940  172.6820 N   0  0  0  0  0  0  0  0  0  0  0  0
  112.2190  105.6970  172.1610 N   0  0  0  0  0  0  0  0  0  0  0  0
  111.5760  104.6240  171.7430 C   0  0  0  0  0  0  0  0  0  0  0  0
  112.2000  103.4640  171.6530 N   0  0  0  0  0  0  0  0  0  0  0  0
  111.3290  102.5980  171.1680 C   0  0  0  0  0  0  0  0  0  0  0  0
  111.4700  101.3040  170.9090 C   0  0  0  0  0  0  0  0  0  0  0  0
  110.4080  100.5800  170.3970 C   0  0  0  0  0  0  0  0  0  0  0  0
  109.2120  101.2430  170.1710 C   0  0  0  0  0  0  0  0  0  0  0  0
  109.1220  102.5970  170.4600 C   0  0  0  0  0  0  0  0  0  0  0  0
  110.1740  103.2450  170.9500 C   0  0  0  0  0  0  0  0  0  0  0  0
  110.3290  104.5250  171.2990 N   0  0  0  0  0  0  0  0  0  0  0  0
  114.9398  111.5730  169.6727 H   0  0  0  0  0  0  0  0  0  0  0  0
  117.0278  111.8807  171.0007 H   0  0  0  0  0  0  0  0  0  0  0  0
  117.1705  110.7807  173.2676 H   0  0  0  0  0  0  0  0  0  0  0  0
  115.1914  109.5155  174.0913 H   0  0  0  0  0  0  0  0  0  0  0  0
  112.5270  109.3645  173.5842 H   0  0  0  0  0  0  0  0  0  0  0  0
  109.9820  107.6859  171.9412 H   0  0  0  0  0  0  0  0  0  0  0  0
  114.9029  106.8517  174.8004 H   0  0  0  0  0  0  0  0  0  0  0  0
  115.7022  106.0041  173.4332 H   0  0  0  0  0  0  0  0  0  0  0  0
  115.5846  107.7965  173.4332 H   0  0  0  0  0  0  0  0  0  0  0  0
  113.1783  103.2715  171.9114 H   0  0  0  0  0  0  0  0  0  0  0  0
  112.4321  100.8067  171.1016 H   0  0  0  0  0  0  0  0  0  0  0  0
  110.5101   99.5074  170.1753 H   0  0  0  0  0  0  0  0  0  0  0  0
  108.3438  100.7017  169.7670 H   0  0  0  0  0  0  0  0  0  0  0  0
  108.1789  103.1349  170.2834 H   0  0  0  0  0  0  0  0  0  0  0  0
  8  7  2  0
 23 22  2  0
 23 24  1  0
 22 21  1  0
 24 25  2  0
  7  6  1  0
  7  9  1  0
  1  6  2  0
  1  2  1  0
 21 20  2  0
 25 20  1  0
 25 26  1  0
  6  5  1  0
 20 19  1  0
 26 18  2  0
 13 12  1  0
  2  3  2  0
  9 10  1  0
 19 18  1  0
 18 17  1  0
 12 17  1  0
 12 11  2  0
 17 16  1  0
  5 10  1  0
  5  4  2  0
 11 10  1  0
 11 14  1  0
  3  4  1  0
 16 14  2  0
 14 15  1  0
  1 27  1  0
  2 28  1  0
  3 29  1  0
  4 30  1  0
 10 31  1  0
 13 32  1  0
 15 33  1  0
 15 34  1  0
 15 35  1  0
 19 36  1  0
 21 37  1  0
 22 38  1  0
 23 39  1  0
 24 40  1  0
A    1
CAH
A    2
CAD
A    3
CAE
A    4
CAI
A    5
CAT
A    6
CAR
A    7
CAP
A    8
OAB
A    9
OAO
A   10
CAY
A   11
CAV
A   12
CAS
A   13
OAC
A   14
CAQ
A   15
CAA
A   16
NAM
A   17
NAZ
A   18
CAU
A   19
NAL
A   20
CAW
A   21
CAJ
A   22
CAF
A   23
CAG
A   24
CAK
A   25
CAX
A   26
NAN
M  END
