5XZE_AE7_A_602
     RDKit          3D

 41 45  0  0  0  0  0  0  0  0999 V2000
  110.7050  203.1910  298.8110 N   0  0  0  0  0  0  0  0  0  0  0  0
  110.3750  201.9540  298.4110 C   0  0  0  0  0  0  0  0  0  0  0  0
  109.3040  201.5930  297.7160 C   0  0  0  0  0  0  0  0  0  0  0  0
  109.1040  200.2640  297.3860 C   0  0  0  0  0  0  0  0  0  0  0  0
  110.0330  199.3090  297.7710 C   0  0  0  0  0  0  0  0  0  0  0  0
  111.1390  199.7250  298.4920 C   0  0  0  0  0  0  0  0  0  0  0  0
  111.2770  201.0150  298.7870 C   0  0  0  0  0  0  0  0  0  0  0  0
  112.4370  201.7480  299.5950 S   0  0  0  0  0  0  0  0  0  0  0  0
  111.8360  203.1830  299.5000 C   0  0  0  0  0  0  0  0  0  0  0  0
  112.4490  204.2220  300.0050 N   0  0  0  0  0  0  0  0  0  0  0  0
  112.0850  205.5020  299.9230 C   0  0  0  0  0  0  0  0  0  0  0  0
  110.9570  205.9250  299.2910 O   0  0  0  0  0  0  0  0  0  0  0  0
  113.4050  204.0880  300.5590 N   0  0  0  0  0  0  0  0  0  0  0  0
  113.8770  205.2500  300.9630 C   0  0  0  0  0  0  0  0  0  0  0  0
  115.1850  205.2940  301.7600 C   0  0  0  0  0  0  0  0  0  0  0  0
  113.0170  206.1910  300.5450 C   0  0  0  0  0  0  0  0  0  0  0  0
  112.9620  207.5900  300.6630 C   0  0  0  0  0  0  0  0  0  0  0  0
  112.0030  208.0420  299.7160 O   0  0  0  0  0  0  0  0  0  0  0  0
  112.7950  208.4110  298.6820 C   0  0  0  0  0  0  0  0  0  0  0  0
  112.3820  208.6610  297.5540 O   0  0  0  0  0  0  0  0  0  0  0  0
  114.0470  208.6580  299.0470 C   0  0  0  0  0  0  0  0  0  0  0  0
  114.1740  208.1890  300.2900 C   0  0  0  0  0  0  0  0  0  0  0  0
  115.3220  208.3220  300.9560 C   0  0  0  0  0  0  0  0  0  0  0  0
  116.4220  208.9310  300.3770 C   0  0  0  0  0  0  0  0  0  0  0  0
  116.2790  209.4250  299.0870 C   0  0  0  0  0  0  0  0  0  0  0  0
  115.0590  209.2710  298.4350 C   0  0  0  0  0  0  0  0  0  0  0  0
  110.1516  204.0359  298.6089 H   0  0  0  0  0  0  0  0  0  0  0  0
  108.5729  202.3523  297.4012 H   0  0  0  0  0  0  0  0  0  0  0  0
  108.2097  199.9656  296.8193 H   0  0  0  0  0  0  0  0  0  0  0  0
  109.8947  198.2493  297.5104 H   0  0  0  0  0  0  0  0  0  0  0  0
  111.8961  198.9965  298.8177 H   0  0  0  0  0  0  0  0  0  0  0  0
  113.5822  201.2748  300.1793 H   0  0  0  0  0  0  0  0  0  0  0  0
  110.1736  206.2188  299.8203 H   0  0  0  0  0  0  0  0  0  0  0  0
  114.9589  205.2864  302.8365 H   0  0  0  0  0  0  0  0  0  0  0  0
  115.7977  204.4160  301.5078 H   0  0  0  0  0  0  0  0  0  0  0  0
  115.7374  206.2112  301.5078 H   0  0  0  0  0  0  0  0  0  0  0  0
  112.7271  207.8473  301.7064 H   0  0  0  0  0  0  0  0  0  0  0  0
  115.3960  207.9404  301.9850 H   0  0  0  0  0  0  0  0  0  0  0  0
  117.3750  209.0204  300.9191 H   0  0  0  0  0  0  0  0  0  0  0  0
  117.1183  209.9310  298.5874 H   0  0  0  0  0  0  0  0  0  0  0  0
  114.9303  209.6561  297.4127 H   0  0  0  0  0  0  0  0  0  0  0  0
  1  2  1  0
  1  9  1  0
  2  3  2  0
  2  7  1  0
  3  4  1  0
  4  5  2  0
  5  6  1  0
  6  7  2  0
  7  8  1  0
  8  9  2  0
  9 10  1  0
 10 11  1  0
 10 13  1  0
 11 12  1  0
 11 16  2  0
 13 14  2  0
 14 15  1  0
 14 16  1  0
 16 17  1  0
 17 18  1  0
 17 22  1  0
 18 19  1  0
 19 20  2  0
 19 21  1  0
 21 22  2  0
 21 26  1  0
 22 23  1  0
 23 24  2  0
 24 25  1  0
 25 26  2  0
  1 27  1  0
  3 28  1  0
  4 29  1  0
  5 30  1  0
  6 31  1  0
  8 32  1  0
 12 33  1  0
 15 34  1  0
 15 35  1  0
 15 36  1  0
 17 37  1  0
 23 38  1  0
 24 39  1  0
 25 40  1  0
 26 41  1  0
A    1
NAL
A    2
CAW
A    3
CAJ
A    4
CAF
A    5
CAG
A    6
CAK
A    7
CAX
A    8
SAO
A    9
CAU
A   10
NAZ
A   11
CAS
A   12
OAC
A   13
NAM
A   14
CAQ
A   15
CAA
A   16
CAV
A   17
CAY
A   18
OAN
A   19
CAP
A   20
OAB
A   21
CAR
A   22
CAT
A   23
CAI
A   24
CAE
A   25
CAD
A   26
CAH
M  END
