5Y3O_8M9_A_601
     RDKit          3D

 37 39  0  0  0  0  0  0  0  0999 V2000
    6.7620    7.6620   21.5370 C   0  0  0  0  0  0  0  0  0  0  0  0
    7.7210    3.9330   21.0340 C   0  0  0  0  0  0  0  0  0  0  0  0
    5.4540    4.3720   20.3100 C   0  0  0  0  0  0  0  0  0  0  0  0
    9.0820    5.8790   21.9640 C   0  0  0  0  0  0  0  0  0  0  0  0
    6.3040    2.0000   20.0890 C   0  0  0  0  0  0  0  0  0  0  0  0
    8.6560    9.1210   23.6470 N   0  0  0  0  0  0  0  0  0  0  0  0
    9.3230    9.6510   24.6820 C   0  0  0  0  0  0  0  0  0  0  0  0
    8.9370    9.4650   25.9460 N   0  0  0  0  0  0  0  0  0  0  0  0
    7.8350    8.7170   26.2210 C   0  0  0  0  0  0  0  0  0  0  0  0
    7.0890    8.1300   25.1460 C   0  0  0  0  0  0  0  0  0  0  0  0
    7.5410    8.3580   23.8160 C   0  0  0  0  0  0  0  0  0  0  0  0
    5.8960    7.2930   24.9970 C   0  0  0  0  0  0  0  0  0  0  0  0
    5.7260    7.0900   23.6780 N   0  0  0  0  0  0  0  0  0  0  0  0
    6.6610    7.7040   22.9880 N   0  0  0  0  0  0  0  0  0  0  0  0
    6.6880    6.1540   21.1550 C   0  0  0  0  0  0  0  0  0  0  0  0
    7.7940    5.3080   21.3740 C   0  0  0  0  0  0  0  0  0  0  0  0
    6.4970    3.4700   20.4880 C   0  0  0  0  0  0  0  0  0  0  0  0
    5.5830    5.6650   20.6480 N   0  0  0  0  0  0  0  0  0  0  0  0
    8.8170    3.0650   21.2540 O   0  0  0  0  0  0  0  0  0  0  0  0
    9.6950    2.8900   20.1700 C   0  0  0  0  0  0  0  0  0  0  0  0
    7.3270    8.4720   27.8810 Cl  0  0  0  0  0  0  0  0  0  0  0  0
   10.4740   10.4330   24.4250 N   0  0  0  0  0  0  0  0  0  0  0  0
    7.7173    8.0954   21.2060 H   0  0  0  0  0  0  0  0  0  0  0  0
    5.9612    8.2432   21.0565 H   0  0  0  0  0  0  0  0  0  0  0  0
    4.5035    4.0190   19.8834 H   0  0  0  0  0  0  0  0  0  0  0  0
    9.0250    5.8537   23.0622 H   0  0  0  0  0  0  0  0  0  0  0  0
    9.9383    5.2762   21.6273 H   0  0  0  0  0  0  0  0  0  0  0  0
    9.2103    6.9183   21.6273 H   0  0  0  0  0  0  0  0  0  0  0  0
    6.2228    1.3817   20.9952 H   0  0  0  0  0  0  0  0  0  0  0  0
    5.3849    1.8995   19.4930 H   0  0  0  0  0  0  0  0  0  0  0  0
    7.1660    1.6656   19.4930 H   0  0  0  0  0  0  0  0  0  0  0  0
    5.2614    6.9052   25.8075 H   0  0  0  0  0  0  0  0  0  0  0  0
   10.7082    2.6881   20.5477 H   0  0  0  0  0  0  0  0  0  0  0  0
    9.3563    2.0417   19.5571 H   0  0  0  0  0  0  0  0  0  0  0  0
    9.7074    3.8033   19.5571 H   0  0  0  0  0  0  0  0  0  0  0  0
   11.0269   10.8086   25.2086 H   0  0  0  0  0  0  0  0  0  0  0  0
   10.7589   10.6266   23.4543 H   0  0  0  0  0  0  0  0  0  0  0  0
  5 17  1  0
 20 19  1  0
  3 17  1  0
  3 18  2  0
 17  2  2  0
 18 15  1  0
  2 19  1  0
  2 16  1  0
 15 16  2  0
 15  1  1  0
 16  4  1  0
  1 14  1  0
 14 13  1  0
 14 11  1  0
  6 11  2  0
  6  7  1  0
 13 12  2  0
 11 10  1  0
 22  7  1  0
  7  8  2  0
 12 10  1  0
 10  9  2  0
  8  9  1  0
  9 21  1  0
  1 23  1  0
  1 24  1  0
  3 25  1  0
  4 26  1  0
  4 27  1  0
  4 28  1  0
  5 29  1  0
  5 30  1  0
  5 31  1  0
 12 32  1  0
 20 33  1  0
 20 34  1  0
 20 35  1  0
 22 36  1  0
 22 37  1  0
A    1
C10
A    2
C13
A    3
C15
A    4
C17
A    5
C20
A    6
N01
A    7
C02
A    8
N03
A    9
C04
A   10
C05
A   11
C06
A   12
C07
A   13
N08
A   14
N09
A   15
C11
A   16
C12
A   17
C14
A   18
N16
A   19
O18
A   20
C19
A   21
CL1
A   22
N22
M  END
