5YJK_8VX_A_301
     RDKit          3D

 66 68  0  0  0  0  0  0  0  0999 V2000
   18.9440   38.3110   22.9260 C   0  0  0  0  0  0  0  0  0  0  0  0
   17.8390   38.4270   23.4440 O   0  0  0  0  0  0  0  0  0  0  0  0
   16.4780   34.2500   17.4410 Cl  0  0  0  0  0  0  0  0  0  0  0  0
   17.1550   35.7860   17.7790 C   0  0  0  0  0  0  0  0  0  0  0  0
   17.1700   36.2830   19.0810 C   0  0  0  0  0  0  0  0  0  0  0  0
   17.6830   36.5470   16.7380 C   0  0  0  0  0  0  0  0  0  0  0  0
   18.2620   37.7820   16.9830 C   0  0  0  0  0  0  0  0  0  0  0  0
   18.3020   38.3080   18.2830 C   0  0  0  0  0  0  0  0  0  0  0  0
   18.8430   39.5200   18.5630 O   0  0  0  0  0  0  0  0  0  0  0  0
   19.4270   40.3080   17.5410 C   0  0  0  0  0  0  0  0  0  0  0  0
   17.7290   37.5450   19.3250 C   0  0  0  0  0  0  0  0  0  0  0  0
   17.7060   37.9910   20.7600 C   0  0  0  0  0  0  0  0  0  0  0  0
   19.0400   37.8250   21.4810 C   0  0  0  0  0  0  0  0  0  0  0  0
   19.6590   36.4170   21.3350 C   0  0  0  0  0  0  0  0  0  0  0  0
   21.0690   36.2570   21.6410 N   0  0  0  0  0  0  0  0  0  0  0  0
   21.8960   37.0800   22.3920 C   0  0  0  0  0  0  0  0  0  0  0  0
   23.1400   36.8940   22.6080 N   0  0  0  0  0  0  0  0  0  0  0  0
   23.7270   35.7890   22.0690 N   0  0  0  0  0  0  0  0  0  0  0  0
   24.6790   36.1200   20.9960 C   0  0  0  0  0  0  0  0  0  0  0  0
   24.1020   34.8120   23.0790 C   0  0  0  0  0  0  0  0  0  0  0  0
   21.3940   38.3840   23.0180 C   0  0  0  0  0  0  0  0  0  0  0  0
   20.0580   38.5060   23.6120 N   0  0  0  0  0  0  0  0  0  0  0  0
   20.0270   38.9770   25.0030 C   0  0  0  0  0  0  0  0  0  0  0  0
   19.4380   40.3680   25.1590 C   0  0  0  0  0  0  0  0  0  0  0  0
   19.8300   41.1890   24.3490 O   0  0  0  0  0  0  0  0  0  0  0  0
   18.5550   40.5770   26.1430 N   0  0  0  0  0  0  0  0  0  0  0  0
   17.8870   41.7820   26.4730 C   0  0  0  0  0  0  0  0  0  0  0  0
   18.1190   43.0300   25.8400 C   0  0  0  0  0  0  0  0  0  0  0  0
   16.9340   41.7470   27.4980 C   0  0  0  0  0  0  0  0  0  0  0  0
   16.2330   42.9080   27.8640 C   0  0  0  0  0  0  0  0  0  0  0  0
   16.4600   44.1320   27.2190 C   0  0  0  0  0  0  0  0  0  0  0  0
   17.4210   44.1970   26.2040 C   0  0  0  0  0  0  0  0  0  0  0  0
   17.8090   45.7080   25.3040 S   0  0  0  0  0  0  0  0  0  0  0  0
   18.3160   45.2690   24.0200 O   0  0  0  0  0  0  0  0  0  0  0  0
   16.6430   46.5570   25.1430 O   0  0  0  0  0  0  0  0  0  0  0  0
   19.1300   46.6540   26.1290 C   0  0  0  0  0  0  0  0  0  0  0  0
   16.7482   35.6919   19.9073 H   0  0  0  0  0  0  0  0  0  0  0  0
   17.6397   36.1625   15.7083 H   0  0  0  0  0  0  0  0  0  0  0  0
   18.6945   38.3555   16.1499 H   0  0  0  0  0  0  0  0  0  0  0  0
   20.0237   41.1131   17.9946 H   0  0  0  0  0  0  0  0  0  0  0  0
   20.0770   39.6766   16.9174 H   0  0  0  0  0  0  0  0  0  0  0  0
   18.6338   40.7462   16.9174 H   0  0  0  0  0  0  0  0  0  0  0  0
   17.4276   39.0548   20.7875 H   0  0  0  0  0  0  0  0  0  0  0  0
   16.9796   37.3504   21.2815 H   0  0  0  0  0  0  0  0  0  0  0  0
   19.7633   38.4778   20.9705 H   0  0  0  0  0  0  0  0  0  0  0  0
   19.1011   35.7437   22.0023 H   0  0  0  0  0  0  0  0  0  0  0  0
   19.5842   36.1943   20.2604 H   0  0  0  0  0  0  0  0  0  0  0  0
   21.5169   35.4175   21.2466 H   0  0  0  0  0  0  0  0  0  0  0  0
   25.6301   36.4507   21.4388 H   0  0  0  0  0  0  0  0  0  0  0  0
   24.8541   35.2300   20.3737 H   0  0  0  0  0  0  0  0  0  0  0  0
   24.2642   36.9267   20.3737 H   0  0  0  0  0  0  0  0  0  0  0  0
   23.9385   35.2381   24.0799 H   0  0  0  0  0  0  0  0  0  0  0  0
   23.4871   33.9077   22.9605 H   0  0  0  0  0  0  0  0  0  0  0  0
   25.1641   34.5513   22.9605 H   0  0  0  0  0  0  0  0  0  0  0  0
   22.1081   38.6354   23.8160 H   0  0  0  0  0  0  0  0  0  0  0  0
   21.3131   39.0413   22.1397 H   0  0  0  0  0  0  0  0  0  0  0  0
   19.4221   38.2744   25.5950 H   0  0  0  0  0  0  0  0  0  0  0  0
   21.0693   39.0263   25.3510 H   0  0  0  0  0  0  0  0  0  0  0  0
   18.3341   39.7618   26.7326 H   0  0  0  0  0  0  0  0  0  0  0  0
   18.8695   43.0878   25.0378 H   0  0  0  0  0  0  0  0  0  0  0  0
   16.7322   40.8011   28.0219 H   0  0  0  0  0  0  0  0  0  0  0  0
   15.4903   42.8557   28.6737 H   0  0  0  0  0  0  0  0  0  0  0  0
   15.8909   45.0283   27.5067 H   0  0  0  0  0  0  0  0  0  0  0  0
   19.0141   46.5710   27.2197 H   0  0  0  0  0  0  0  0  0  0  0  0
   20.1096   46.2508   25.8326 H   0  0  0  0  0  0  0  0  0  0  0  0
   19.0638   47.7113   25.8326 H   0  0  0  0  0  0  0  0  0  0  0  0
  6  7  1  0
  6  4  2  0
  7  8  2  0
  3  4  1  0
 10  9  1  0
  4  5  1  0
  8  9  1  0
  8 11  1  0
  5 11  2  0
 11 12  1  0
 12 13  1  0
 19 18  1  0
 14 13  1  0
 14 15  1  0
 13  1  1  0
 15 16  1  0
 18 17  1  0
 18 20  1  0
 16 17  2  0
 16 21  1  0
  1  2  2  0
  1 22  1  0
 21 22  1  0
 22 23  1  0
 34 33  2  0
 25 24  2  0
 23 24  1  0
 35 33  2  0
 24 26  1  0
 33 36  1  0
 33 32  1  0
 28 32  2  0
 28 27  1  0
 26 27  1  0
 32 31  1  0
 27 29  2  0
 31 30  2  0
 29 30  1  0
  5 37  1  0
  6 38  1  0
  7 39  1  0
 10 40  1  0
 10 41  1  0
 10 42  1  0
 12 43  1  0
 12 44  1  0
 13 45  1  0
 14 46  1  0
 14 47  1  0
 15 48  1  0
 19 49  1  0
 19 50  1  0
 19 51  1  0
 20 52  1  0
 20 53  1  0
 20 54  1  0
 21 55  1  0
 21 56  1  0
 23 57  1  0
 23 58  1  0
 26 59  1  0
 28 60  1  0
 29 61  1  0
 30 62  1  0
 31 63  1  0
 36 64  1  0
 36 65  1  0
 36 66  1  0
A    1
C1
A    2
O2
A    3
CL2
A    4
C9
A    5
C10
A    6
C8
A    7
C7
A    8
C6
A    9
O23
A   10
C24
A   11
C5
A   12
C4
A   13
C3
A   14
C11
A   15
N12
A   16
C13
A   17
N14
A   18
N62
A   19
C63
A   20
C68
A   21
C15
A   22
N16
A   23
C17
A   24
C19
A   25
O30
A   26
N20
A   27
C21
A   28
C25
A   29
C29
A   30
C28
A   31
C27
A   32
C26
A   33
S31
A   34
O32
A   35
O33
A   36
C72
M  END
