6AU3_BWM_A_501
     RDKit          3D

 34 35  0  0  0  0  0  0  0  0999 V2000
   16.6270   60.2870    6.7220 C   0  0  0  0  0  0  0  0  0  0  0  0
   16.8240   60.2080    5.3540 C   0  0  0  0  0  0  0  0  0  0  0  0
   16.1970   59.2260    4.6170 C   0  0  0  0  0  0  0  0  0  0  0  0
   14.2800   57.4340    7.2400 N   0  0  0  0  0  0  0  0  0  0  0  0
   15.3530   58.3140    5.2350 C   0  0  0  0  0  0  0  0  0  0  0  0
   15.1520   58.3980    6.6100 C   0  0  0  0  0  0  0  0  0  0  0  0
   13.5440   55.6040    8.1990 N   0  0  0  0  0  0  0  0  0  0  0  0
   14.5730   56.1300    7.5860 C   0  0  0  0  0  0  0  0  0  0  0  0
   15.8380   55.4210    7.2590 C   0  0  0  0  0  0  0  0  0  0  0  0
   12.9880   57.6440    7.6590 C   0  0  0  0  0  0  0  0  0  0  0  0
   12.2240   58.8920    7.4320 C   0  0  0  0  0  0  0  0  0  0  0  0
   12.5400   56.5610    8.2470 N   0  0  0  0  0  0  0  0  0  0  0  0
   14.5710   57.6370   10.8190 O   0  0  0  0  0  0  0  0  0  0  0  0
   15.7200   57.4700   10.4310 C   0  0  0  0  0  0  0  0  0  0  0  0
   16.5590   56.3280   10.9140 C   0  0  0  0  0  0  0  0  0  0  0  0
   16.2840   58.2760    9.5210 N   0  0  0  0  0  0  0  0  0  0  0  0
   15.6490   59.4120    8.8760 C   0  0  0  0  0  0  0  0  0  0  0  0
   15.7940   59.3820    7.3740 C   0  0  0  0  0  0  0  0  0  0  0  0
   17.1342   61.0735    7.3001 H   0  0  0  0  0  0  0  0  0  0  0  0
   17.4836   60.9318    4.8529 H   0  0  0  0  0  0  0  0  0  0  0  0
   16.3668   59.1649    3.5319 H   0  0  0  0  0  0  0  0  0  0  0  0
   14.8489   57.5341    4.6454 H   0  0  0  0  0  0  0  0  0  0  0  0
   16.3490   55.1346    8.1900 H   0  0  0  0  0  0  0  0  0  0  0  0
   15.6114   54.5184    6.6725 H   0  0  0  0  0  0  0  0  0  0  0  0
   16.4896   56.0854    6.6725 H   0  0  0  0  0  0  0  0  0  0  0  0
   11.9518   59.3366    8.4006 H   0  0  0  0  0  0  0  0  0  0  0  0
   12.8423   59.6022    6.8634 H   0  0  0  0  0  0  0  0  0  0  0  0
   11.3103   58.6643    6.8634 H   0  0  0  0  0  0  0  0  0  0  0  0
   16.5664   56.3179   12.0139 H   0  0  0  0  0  0  0  0  0  0  0  0
   16.1397   55.3817   10.5415 H   0  0  0  0  0  0  0  0  0  0  0  0
   17.5873   56.4452   10.5415 H   0  0  0  0  0  0  0  0  0  0  0  0
   17.2575   58.0710    9.2544 H   0  0  0  0  0  0  0  0  0  0  0  0
   16.1096   60.3358    9.2561 H   0  0  0  0  0  0  0  0  0  0  0  0
   14.5746   59.3693    9.1080 H   0  0  0  0  0  0  0  0  0  0  0  0
  3  5  2  0
  3  2  1  0
  5  6  1  0
  2  1  2  0
  6  4  1  0
  6 18  2  0
  1 18  1  0
  4  8  1  0
  4 10  1  0
  9  8  1  0
 18 17  1  0
 11 10  1  0
  8  7  2  0
 10 12  2  0
  7 12  1  0
 17 16  1  0
 16 14  1  0
 14 13  2  0
 14 15  1  0
  1 19  1  0
  2 20  1  0
  3 21  1  0
  5 22  1  0
  9 23  1  0
  9 24  1  0
  9 25  1  0
 11 26  1  0
 11 27  1  0
 11 28  1  0
 15 29  1  0
 15 30  1  0
 15 31  1  0
 16 32  1  0
 17 33  1  0
 17 34  1  0
A    1
C4
A    2
C5
A    3
C6
A    4
N1
A    5
C7
A    6
C8
A    7
N2
A    8
C9
A    9
C10
A   10
C11
A   11
C12
A   12
N3
A   13
O
A   14
C1
A   15
C
A   16
N
A   17
C2
A   18
C3
M  END
