2Q9Y_BTM_B_704
     RDKit          3D

 36 36  0  0  0  0  0  0  0  0999 V2000
  -39.6830   -3.0680   15.8930 N   0  0  0  0  0  0  0  0  0  0  0  0
  -40.5330   -2.4500   14.7200 C   0  0  0  0  0  0  0  0  0  0  0  0
  -40.5870   -3.5210   17.0960 C   0  0  0  0  0  0  0  0  0  0  0  0
  -41.2090   -4.9480   17.0920 C   0  0  0  0  0  0  0  0  0  0  0  0
  -38.7370   -1.9680   16.4410 C   0  0  0  0  0  0  0  0  0  0  0  0
  -39.3560   -0.6670   17.0100 C   0  0  0  0  0  0  0  0  0  0  0  0
  -38.7970   -4.2710   15.4800 C   0  0  0  0  0  0  0  0  0  0  0  0
  -37.8150   -4.0700   14.3130 C   0  0  0  0  0  0  0  0  0  0  0  0
  -41.6120   -3.2600   13.9910 C   0  0  0  0  0  0  0  0  0  0  0  0
  -42.9290   -2.7120   13.8810 C   0  0  0  0  0  0  0  0  0  0  0  0
  -43.9710   -3.4160   13.2280 C   0  0  0  0  0  0  0  0  0  0  0  0
  -43.7150   -4.6900   12.6700 C   0  0  0  0  0  0  0  0  0  0  0  0
  -42.4150   -5.2590   12.7620 C   0  0  0  0  0  0  0  0  0  0  0  0
  -41.3790   -4.5510   13.4140 C   0  0  0  0  0  0  0  0  0  0  0  0
  -41.0387   -1.5666   15.1370 H   0  0  0  0  0  0  0  0  0  0  0  0
  -39.7770   -2.3075   13.9338 H   0  0  0  0  0  0  0  0  0  0  0  0
  -39.9729   -3.4421   18.0052 H   0  0  0  0  0  0  0  0  0  0  0  0
  -41.4616   -2.8576   17.0263 H   0  0  0  0  0  0  0  0  0  0  0  0
  -41.3566   -5.2866   18.1281 H   0  0  0  0  0  0  0  0  0  0  0  0
  -42.1783   -4.9240   16.5725 H   0  0  0  0  0  0  0  0  0  0  0  0
  -40.5316   -5.6418   16.5725 H   0  0  0  0  0  0  0  0  0  0  0  0
  -38.1444   -2.4238   17.2478 H   0  0  0  0  0  0  0  0  0  0  0  0
  -38.1788   -1.6316   15.5549 H   0  0  0  0  0  0  0  0  0  0  0  0
  -39.3388   -0.7030   18.1093 H   0  0  0  0  0  0  0  0  0  0  0  0
  -38.7733    0.1988   16.6624 H   0  0  0  0  0  0  0  0  0  0  0  0
  -40.3954   -0.5729   16.6624 H   0  0  0  0  0  0  0  0  0  0  0  0
  -38.2052   -4.5606   16.3609 H   0  0  0  0  0  0  0  0  0  0  0  0
  -39.5081   -5.0277   15.1171 H   0  0  0  0  0  0  0  0  0  0  0  0
  -36.8102   -3.8643   14.7106 H   0  0  0  0  0  0  0  0  0  0  0  0
  -37.7862   -4.9809   13.6970 H   0  0  0  0  0  0  0  0  0  0  0  0
  -38.1464   -3.2211   13.6970 H   0  0  0  0  0  0  0  0  0  0  0  0
  -43.1373   -1.7221   14.3130 H   0  0  0  0  0  0  0  0  0  0  0  0
  -44.9753   -2.9732   13.1554 H   0  0  0  0  0  0  0  0  0  0  0  0
  -44.5218   -5.2410   12.1646 H   0  0  0  0  0  0  0  0  0  0  0  0
  -42.2154   -6.2491   12.3263 H   0  0  0  0  0  0  0  0  0  0  0  0
  -40.3765   -4.9991   13.4795 H   0  0  0  0  0  0  0  0  0  0  0  0
  1  2  1  0
  1  3  1  0
  1  5  1  0
  1  7  1  0
  2  9  1  0
  3  4  1  0
  5  6  1  0
  7  8  1  0
  9 10  2  0
  9 14  1  0
 10 11  1  0
 11 12  2  0
 12 13  1  0
 13 14  2  0
  2 15  1  0
  2 16  1  0
  3 17  1  0
  3 18  1  0
  4 19  1  0
  4 20  1  0
  4 21  1  0
  5 22  1  0
  5 23  1  0
  6 24  1  0
  6 25  1  0
  6 26  1  0
  7 27  1  0
  7 28  1  0
  8 29  1  0
  8 30  1  0
  8 31  1  0
 10 32  1  0
 11 33  1  0
 12 34  1  0
 13 35  1  0
 14 36  1  0
M  CHG  1   1   1
A    1
N
A    2
C1
A    3
C2
A    4
C3
A    5
C4
A    6
C5
A    7
C6
A    8
C7
A    9
C8
A   10
C9
A   11
C10
A   12
C11
A   13
C12
A   14
C13
M  END
