6B0Z_C81_A_502
     RDKit          3D

 57 60  0  0  0  0  0  0  0  0999 V2000
   25.5320   27.2690   26.5570 C   0  0  0  0  0  0  0  0  0  0  0  0
   22.4780   24.4890   29.0110 C   0  0  0  0  0  0  0  0  0  0  0  0
   25.6920   23.5120   28.7790 C   0  0  0  0  0  0  0  0  0  0  0  0
   27.6560   26.1170   26.2170 C   0  0  0  0  0  0  0  0  0  0  0  0
   28.2550   26.1750   27.6290 C   0  0  0  0  0  0  0  0  0  0  0  0
   29.5280   25.1340   29.3160 C   0  0  0  0  0  0  0  0  0  0  0  0
   29.3650   26.2260   30.1760 C   0  0  0  0  0  0  0  0  0  0  0  0
   28.6270   27.3370   29.7250 C   0  0  0  0  0  0  0  0  0  0  0  0
   28.0760   27.2940   28.4440 C   0  0  0  0  0  0  0  0  0  0  0  0
   30.0200   26.1770   31.5110 C   0  0  0  0  0  0  0  0  0  0  0  0
   29.3110   26.3610   32.7020 C   0  0  0  0  0  0  0  0  0  0  0  0
   29.9870   26.3210   33.9230 C   0  0  0  0  0  0  0  0  0  0  0  0
   32.0290   25.9110   32.8280 C   0  0  0  0  0  0  0  0  0  0  0  0
   31.3980   25.9490   31.5820 C   0  0  0  0  0  0  0  0  0  0  0  0
   28.8170   26.2000   25.1960 C   0  0  0  0  0  0  0  0  0  0  0  0
   26.6620   22.4460   28.2130 C   0  0  0  0  0  0  0  0  0  0  0  0
   23.3350   22.5280   28.3530 C   0  0  0  0  0  0  0  0  0  0  0  0
   28.3900   28.6040   30.5620 C   0  0  0  0  0  0  0  0  0  0  0  0
   29.2240   26.5280   35.2290 C   0  0  0  0  0  0  0  0  0  0  0  0
   23.8930   26.0290   27.6950 C   0  0  0  0  0  0  0  0  0  0  0  0
   23.0680   27.1600   27.7400 C   0  0  0  0  0  0  0  0  0  0  0  0
   23.5430   28.3440   27.1670 C   0  0  0  0  0  0  0  0  0  0  0  0
   24.3780   23.5950   27.9520 C   0  0  0  0  0  0  0  0  0  0  0  0
   25.4040   23.2420   30.0810 F   0  0  0  0  0  0  0  0  0  0  0  0
   29.4290   25.4640   36.0490 F   0  0  0  0  0  0  0  0  0  0  0  0
   29.6790   27.6590   35.8320 F   0  0  0  0  0  0  0  0  0  0  0  0
   27.8920   26.6680   34.9840 F   0  0  0  0  0  0  0  0  0  0  0  0
   24.7620   28.3750   26.5900 N   0  0  0  0  0  0  0  0  0  0  0  0
   28.9750   25.1300   28.0840 N   0  0  0  0  0  0  0  0  0  0  0  0
   31.3180   26.0970   33.9580 N   0  0  0  0  0  0  0  0  0  0  0  0
   25.0940   26.1240   27.1040 N   0  0  0  0  0  0  0  0  0  0  0  0
   23.5470   24.7540   28.2300 N   0  0  0  0  0  0  0  0  0  0  0  0
   26.7610   27.2520   25.9950 N   0  0  0  0  0  0  0  0  0  0  0  0
   22.4930   23.1880   29.3090 O   0  0  0  0  0  0  0  0  0  0  0  0
   21.6140   25.2430   29.4150 O   0  0  0  0  0  0  0  0  0  0  0  0
   26.1956   24.4874   28.7093 H   0  0  0  0  0  0  0  0  0  0  0  0
   27.0873   25.1827   26.0999 H   0  0  0  0  0  0  0  0  0  0  0  0
   30.1156   24.2656   29.6487 H   0  0  0  0  0  0  0  0  0  0  0  0
   27.4946   28.1507   28.0725 H   0  0  0  0  0  0  0  0  0  0  0  0
   28.2254   26.5365   32.6771 H   0  0  0  0  0  0  0  0  0  0  0  0
   33.1121   25.7283   32.8872 H   0  0  0  0  0  0  0  0  0  0  0  0
   31.9820   25.8004   30.6617 H   0  0  0  0  0  0  0  0  0  0  0  0
   29.7741   26.2684   25.7339 H   0  0  0  0  0  0  0  0  0  0  0  0
   28.8149   25.2994   24.5644 H   0  0  0  0  0  0  0  0  0  0  0  0
   28.6868   27.0911   24.5644 H   0  0  0  0  0  0  0  0  0  0  0  0
   27.1468   21.9132   29.0443 H   0  0  0  0  0  0  0  0  0  0  0  0
   26.0998   21.7293   27.5963 H   0  0  0  0  0  0  0  0  0  0  0  0
   27.4284   22.9382   27.5963 H   0  0  0  0  0  0  0  0  0  0  0  0
   22.7514   22.2068   27.4776 H   0  0  0  0  0  0  0  0  0  0  0  0
   23.8023   21.6209   28.7640 H   0  0  0  0  0  0  0  0  0  0  0  0
   28.4373   28.3511   31.6315 H   0  0  0  0  0  0  0  0  0  0  0  0
   29.1644   29.3490   30.3268 H   0  0  0  0  0  0  0  0  0  0  0  0
   27.3987   29.0187   30.3268 H   0  0  0  0  0  0  0  0  0  0  0  0
   22.0754   27.1182   28.2123 H   0  0  0  0  0  0  0  0  0  0  0  0
   22.9216   29.2515   27.1868 H   0  0  0  0  0  0  0  0  0  0  0  0
   24.7938   23.5394   26.9351 H   0  0  0  0  0  0  0  0  0  0  0  0
   27.0682   28.0410   25.4085 H   0  0  0  0  0  0  0  0  0  0  0  0
 15  4  1  0
 33  4  1  0
 33  1  1  0
  4  5  1  0
  1 28  2  0
  1 31  1  0
 28 22  1  0
 31 20  2  0
 22 21  2  0
  5 29  1  0
  5  9  2  0
 20 21  1  0
 20 32  1  0
 23 32  1  0
 23 17  1  0
 23  3  1  0
 29  6  2  0
 16  3  1  0
 32  2  1  0
 17 34  1  0
  9  8  1  0
  3 24  1  0
  2 34  1  0
  2 35  2  0
  6  7  1  0
  8  7  2  0
  8 18  1  0
  7 10  1  0
 10 14  1  0
 10 11  2  0
 14 13  2  0
 11 12  1  0
 13 30  1  0
 12 30  2  0
 12 19  1  0
 27 19  1  0
 19 26  1  0
 19 25  1  0
  3 36  1  0
  4 37  1  0
  6 38  1  0
  9 39  1  0
 11 40  1  0
 13 41  1  0
 14 42  1  0
 15 43  1  0
 15 44  1  0
 15 45  1  0
 16 46  1  0
 16 47  1  0
 16 48  1  0
 17 49  1  0
 17 50  1  0
 18 51  1  0
 18 52  1  0
 18 53  1  0
 21 54  1  0
 22 55  1  0
 23 56  1  0
 33 57  1  0
A    1
C2
A    2
C12
A    3
C14
A    4
C15
A    5
C16
A    6
C18
A    7
C19
A    8
C20
A    9
C21
A   10
C22
A   11
C23
A   12
C24
A   13
C26
A   14
C27
A   15
C28
A   16
C30
A   17
C10
A   18
C31
A   19
C32
A   20
C4
A   21
C5
A   22
C6
A   23
C9
A   24
F29
A   25
F33
A   26
F34
A   27
F35
A   28
N1
A   29
N17
A   30
N25
A   31
N3
A   32
N7
A   33
N8
A   34
O11
A   35
O13
M  END
