6B4L_CJY_A_401
     RDKit          3D

 45 48  0  0  0  0  0  0  0  0999 V2000
   13.5980  -12.6650   13.1730 C   0  0  0  0  0  0  0  0  0  0  0  0
   10.0970   -8.9290    9.1350 C   0  0  0  0  0  0  0  0  0  0  0  0
   12.0380   -5.8730    8.7370 C   0  0  0  0  0  0  0  0  0  0  0  0
   11.7320   -5.8890   11.4760 C   0  0  0  0  0  0  0  0  0  0  0  0
   12.8120  -10.3980   13.4890 C   0  0  0  0  0  0  0  0  0  0  0  0
   12.7380  -13.1360   14.1410 C   0  0  0  0  0  0  0  0  0  0  0  0
   11.1670   -6.9010   10.7130 C   0  0  0  0  0  0  0  0  0  0  0  0
   11.0120  -10.2060   15.3330 C   0  0  0  0  0  0  0  0  0  0  0  0
   10.4460   -7.9330   11.2920 C   0  0  0  0  0  0  0  0  0  0  0  0
    9.2330   -8.5480   13.2590 C   0  0  0  0  0  0  0  0  0  0  0  0
    9.4620  -11.0940   17.1780 C   0  0  0  0  0  0  0  0  0  0  0  0
   12.6040   -4.8730    9.5090 C   0  0  0  0  0  0  0  0  0  0  0  0
   12.4510   -4.8800   10.8780 C   0  0  0  0  0  0  0  0  0  0  0  0
   13.6270  -11.3220   12.8610 C   0  0  0  0  0  0  0  0  0  0  0  0
   10.7970   -7.9010    8.5500 C   0  0  0  0  0  0  0  0  0  0  0  0
    9.9200   -8.9500   10.5010 C   0  0  0  0  0  0  0  0  0  0  0  0
   11.3230   -6.8910    9.3350 C   0  0  0  0  0  0  0  0  0  0  0  0
   11.9490  -10.8500   14.4730 C   0  0  0  0  0  0  0  0  0  0  0  0
   11.9340  -12.2020   14.7680 C   0  0  0  0  0  0  0  0  0  0  0  0
   10.4560  -11.1880   16.1400 C   0  0  0  0  0  0  0  0  0  0  0  0
   10.7070   -8.7540   15.3440 C   0  0  0  0  0  0  0  0  0  0  0  0
    9.3480   -8.4090   14.7660 C   0  0  0  0  0  0  0  0  0  0  0  0
   11.0250  -12.3790   15.7760 N   0  0  0  0  0  0  0  0  0  0  0  0
    9.0320  -10.0900   17.7250 O   0  0  0  0  0  0  0  0  0  0  0  0
    9.0570  -12.3380   17.5130 O   0  0  0  0  0  0  0  0  0  0  0  0
   10.3520   -7.8890   12.6880 O   0  0  0  0  0  0  0  0  0  0  0  0
   14.2648  -13.3637   12.6464 H   0  0  0  0  0  0  0  0  0  0  0  0
    9.6786   -9.7341    8.5131 H   0  0  0  0  0  0  0  0  0  0  0  0
   12.1584   -5.8563    7.6437 H   0  0  0  0  0  0  0  0  0  0  0  0
   11.6039   -5.8936   12.5685 H   0  0  0  0  0  0  0  0  0  0  0  0
   12.8483   -9.3334   13.2144 H   0  0  0  0  0  0  0  0  0  0  0  0
   12.6932  -14.2036   14.4024 H   0  0  0  0  0  0  0  0  0  0  0  0
    8.3013   -8.0805   12.9079 H   0  0  0  0  0  0  0  0  0  0  0  0
    9.2141   -9.6081   12.9660 H   0  0  0  0  0  0  0  0  0  0  0  0
   13.1789   -4.0687    9.0268 H   0  0  0  0  0  0  0  0  0  0  0  0
   12.9009   -4.0838   11.4892 H   0  0  0  0  0  0  0  0  0  0  0  0
   14.3236  -10.9731   12.0845 H   0  0  0  0  0  0  0  0  0  0  0  0
   10.9387   -7.8815    7.4593 H   0  0  0  0  0  0  0  0  0  0  0  0
    9.3607   -9.7739   10.9684 H   0  0  0  0  0  0  0  0  0  0  0  0
   11.4765   -8.2336   14.7549 H   0  0  0  0  0  0  0  0  0  0  0  0
   10.6967   -8.4371   16.3973 H   0  0  0  0  0  0  0  0  0  0  0  0
    9.1208   -7.3656   15.0299 H   0  0  0  0  0  0  0  0  0  0  0  0
    8.6407   -9.1344   15.1945 H   0  0  0  0  0  0  0  0  0  0  0  0
   10.7989  -13.2881   16.2041 H   0  0  0  0  0  0  0  0  0  0  0  0
    9.0089  -10.0361   18.7133 H   0  0  0  0  0  0  0  0  0  0  0  0
 15  2  2  0
 15 17  1  0
  3 17  2  0
  3 12  1  0
  2 16  1  0
 17  7  1  0
 12 13  2  0
 16  9  2  0
  7  9  1  0
  7  4  2  0
 13  4  1  0
  9 26  1  0
 26 10  1  0
 14  1  2  0
 14  5  1  0
  1  6  1  0
 10 22  1  0
  5 18  2  0
  6 19  2  0
 18 19  1  0
 18  8  1  0
 22 21  1  0
 19 23  1  0
  8 21  1  0
  8 20  2  0
 23 20  1  0
 20 11  1  0
 11 25  2  0
 11 24  1  0
  1 27  1  0
  2 28  1  0
  3 29  1  0
  4 30  1  0
  5 31  1  0
  6 32  1  0
 10 33  1  0
 10 34  1  0
 12 35  1  0
 13 36  1  0
 14 37  1  0
 15 38  1  0
 16 39  1  0
 21 40  1  0
 21 41  1  0
 22 42  1  0
 22 43  1  0
 23 44  1  0
 24 45  1  0
A    1
C4
A    2
C5
A    3
C6
A    4
C7
A    5
C8
A    6
C10
A    7
C13
A    8
C15
A    9
C17
A   10
C20
A   11
C24
A   12
C1
A   13
C2
A   14
C3
A   15
C9
A   16
C11
A   17
C12
A   18
C14
A   19
C16
A   20
C23
A   21
C18
A   22
C19
A   23
N22
A   24
O25
A   25
O26
A   26
O21
M  END
