6B4U_CN7_A_401
     RDKit          3D

 77 82  0  0  0  0  0  0  0  0999 V2000
  -10.2250   17.0970   -6.4580 C   0  0  0  0  0  0  0  0  0  0  0  0
   -7.2780   15.3410   -1.1050 C   0  0  0  0  0  0  0  0  0  0  0  0
   -1.7160   15.8990    0.8190 C   0  0  0  0  0  0  0  0  0  0  0  0
   -2.2290   13.9250    3.8350 C   0  0  0  0  0  0  0  0  0  0  0  0
   -4.3300   15.6720    4.0390 C   0  0  0  0  0  0  0  0  0  0  0  0
   -1.5300   14.9580    1.8070 C   0  0  0  0  0  0  0  0  0  0  0  0
  -11.0070   17.0960   -5.3250 C   0  0  0  0  0  0  0  0  0  0  0  0
   -2.4050   14.8950    2.8700 C   0  0  0  0  0  0  0  0  0  0  0  0
   -7.6600   17.6090   -0.5060 C   0  0  0  0  0  0  0  0  0  0  0  0
  -10.4260   16.9940   -4.0780 C   0  0  0  0  0  0  0  0  0  0  0  0
   -7.6940   18.8330    0.2230 C   0  0  0  0  0  0  0  0  0  0  0  0
   -8.2450   17.8170   -1.7520 C   0  0  0  0  0  0  0  0  0  0  0  0
   -8.2680   19.7820   -0.5930 C   0  0  0  0  0  0  0  0  0  0  0  0
   -8.1980   20.4750   -6.0920 C   0  0  0  0  0  0  0  0  0  0  0  0
   -8.1260   21.4590   -7.2500 C   0  0  0  0  0  0  0  0  0  0  0  0
   -3.0850   13.8320    4.9090 C   0  0  0  0  0  0  0  0  0  0  0  0
   -4.1390   14.7150    5.0090 C   0  0  0  0  0  0  0  0  0  0  0  0
   -8.8600   16.9840   -6.3440 C   0  0  0  0  0  0  0  0  0  0  0  0
   -7.1890   16.3460   -0.1690 C   0  0  0  0  0  0  0  0  0  0  0  0
   -8.2760   16.8790   -5.1010 C   0  0  0  0  0  0  0  0  0  0  0  0
   -7.8690   15.5590   -2.3270 C   0  0  0  0  0  0  0  0  0  0  0  0
   -2.7720   16.7840    0.8880 C   0  0  0  0  0  0  0  0  0  0  0  0
   -3.4610   15.7840    2.9620 C   0  0  0  0  0  0  0  0  0  0  0  0
   -9.0460   16.8970   -3.9590 C   0  0  0  0  0  0  0  0  0  0  0  0
   -8.3820   16.7910   -2.6830 C   0  0  0  0  0  0  0  0  0  0  0  0
   -3.6390   16.7350    1.9730 C   0  0  0  0  0  0  0  0  0  0  0  0
   -8.6050   21.1480   -0.2950 C   0  0  0  0  0  0  0  0  0  0  0  0
   -6.6450   21.9820   -4.8770 C   0  0  0  0  0  0  0  0  0  0  0  0
   -6.6520   22.8740   -6.1080 C   0  0  0  0  0  0  0  0  0  0  0  0
  -11.3520   16.9970   -2.9010 C   0  0  0  0  0  0  0  0  0  0  0  0
   -7.2400   19.0320    1.6180 C   0  0  0  0  0  0  0  0  0  0  0  0
   -5.8600   19.6420    1.7730 C   0  0  0  0  0  0  0  0  0  0  0  0
   -9.0430   19.9100   -2.9330 C   0  0  0  0  0  0  0  0  0  0  0  0
   -7.7690   20.2430   -3.7010 C   0  0  0  0  0  0  0  0  0  0  0  0
   -4.7430   18.7310    1.3040 C   0  0  0  0  0  0  0  0  0  0  0  0
   -8.6000   19.1510   -1.7680 N   0  0  0  0  0  0  0  0  0  0  0  0
   -7.9250   21.2130   -4.8190 N   0  0  0  0  0  0  0  0  0  0  0  0
   -9.7270   21.6040   -0.4380 O   0  0  0  0  0  0  0  0  0  0  0  0
   -6.8240   22.0470   -7.2590 O   0  0  0  0  0  0  0  0  0  0  0  0
   -7.5820   21.8610    0.2210 O   0  0  0  0  0  0  0  0  0  0  0  0
   -4.7350   17.5760    2.1410 O   0  0  0  0  0  0  0  0  0  0  0  0
  -10.6907   17.1879   -7.4504 H   0  0  0  0  0  0  0  0  0  0  0  0
   -6.8695   14.3467   -0.8715 H   0  0  0  0  0  0  0  0  0  0  0  0
   -1.0184   15.9453   -0.0303 H   0  0  0  0  0  0  0  0  0  0  0  0
   -1.3929   13.2159    3.7450 H   0  0  0  0  0  0  0  0  0  0  0  0
   -5.1851   16.3595    4.1181 H   0  0  0  0  0  0  0  0  0  0  0  0
   -0.6840   14.2574    1.7479 H   0  0  0  0  0  0  0  0  0  0  0  0
  -12.1004   17.1769   -5.4145 H   0  0  0  0  0  0  0  0  0  0  0  0
   -9.2005   20.0241   -6.0510 H   0  0  0  0  0  0  0  0  0  0  0  0
   -7.4533   19.6774   -6.2305 H   0  0  0  0  0  0  0  0  0  0  0  0
   -8.8870   22.2425   -7.1201 H   0  0  0  0  0  0  0  0  0  0  0  0
   -8.3136   20.9392   -8.2011 H   0  0  0  0  0  0  0  0  0  0  0  0
   -2.9298   13.0618    5.6788 H   0  0  0  0  0  0  0  0  0  0  0  0
   -4.8276   14.6544    5.8647 H   0  0  0  0  0  0  0  0  0  0  0  0
   -8.2325   16.9774   -7.2475 H   0  0  0  0  0  0  0  0  0  0  0  0
   -6.7549   16.1538    0.8233 H   0  0  0  0  0  0  0  0  0  0  0  0
   -7.1835   16.7798   -5.0194 H   0  0  0  0  0  0  0  0  0  0  0  0
   -7.9353   14.7267   -3.0432 H   0  0  0  0  0  0  0  0  0  0  0  0
   -2.9268   17.5240    0.0890 H   0  0  0  0  0  0  0  0  0  0  0  0
   -5.7980   21.2825   -4.9346 H   0  0  0  0  0  0  0  0  0  0  0  0
   -6.5449   22.6009   -3.9732 H   0  0  0  0  0  0  0  0  0  0  0  0
   -5.6981   23.4172   -6.1793 H   0  0  0  0  0  0  0  0  0  0  0  0
   -7.4703   23.6061   -6.0413 H   0  0  0  0  0  0  0  0  0  0  0  0
  -10.7636   16.9951   -1.9716 H   0  0  0  0  0  0  0  0  0  0  0  0
  -11.9833   17.8972   -2.9335 H   0  0  0  0  0  0  0  0  0  0  0  0
  -11.9892   16.1009   -2.9335 H   0  0  0  0  0  0  0  0  0  0  0  0
   -7.9618   19.6942    2.1184 H   0  0  0  0  0  0  0  0  0  0  0  0
   -7.1788   18.0277    2.0627 H   0  0  0  0  0  0  0  0  0  0  0  0
   -5.6983   19.8730    2.8362 H   0  0  0  0  0  0  0  0  0  0  0  0
   -5.8305   20.5430    1.1426 H   0  0  0  0  0  0  0  0  0  0  0  0
   -9.5570   20.8310   -2.6207 H   0  0  0  0  0  0  0  0  0  0  0  0
   -9.7566   19.3412   -3.5472 H   0  0  0  0  0  0  0  0  0  0  0  0
   -7.3716   19.3063   -4.1190 H   0  0  0  0  0  0  0  0  0  0  0  0
   -7.0988   20.7268   -2.9752 H   0  0  0  0  0  0  0  0  0  0  0  0
   -4.9175   18.4337    0.2594 H   0  0  0  0  0  0  0  0  0  0  0  0
   -3.7757   19.2515    1.3621 H   0  0  0  0  0  0  0  0  0  0  0  0
   -7.4757   21.9351    1.2025 H   0  0  0  0  0  0  0  0  0  0  0  0
 39 15  1  0
 39 29  1  0
 15 14  1  0
  1 18  2  0
  1  7  1  0
 18 20  1  0
 29 28  1  0
 14 37  1  0
  7 10  2  0
 20 24  2  0
 28 37  1  0
 37 34  1  0
 10 24  1  0
 10 30  1  0
 24 25  1  0
 34 33  1  0
 33 36  1  0
 25 21  1  0
 25 12  2  0
 21  2  2  0
 36 12  1  0
 36 13  1  0
 12  9  1  0
  2 19  1  0
 13 27  1  0
 13 11  2  0
  9 19  2  0
  9 11  1  0
 38 27  2  0
 27 40  1  0
 11 31  1  0
  3 22  2  0
  3  6  1  0
 22 26  1  0
 35 32  1  0
 35 41  1  0
 31 32  1  0
  6  8  2  0
 26 41  1  0
 26 23  2  0
  8 23  1  0
  8  4  1  0
 23  5  1  0
  4 16  2  0
  5 17  2  0
 16 17  1  0
  1 42  1  0
  2 43  1  0
  3 44  1  0
  4 45  1  0
  5 46  1  0
  6 47  1  0
  7 48  1  0
 14 49  1  0
 14 50  1  0
 15 51  1  0
 15 52  1  0
 16 53  1  0
 17 54  1  0
 18 55  1  0
 19 56  1  0
 20 57  1  0
 21 58  1  0
 22 59  1  0
 28 60  1  0
 28 61  1  0
 29 62  1  0
 29 63  1  0
 30 64  1  0
 30 65  1  0
 30 66  1  0
 31 67  1  0
 31 68  1  0
 32 69  1  0
 32 70  1  0
 33 71  1  0
 33 72  1  0
 34 73  1  0
 34 74  1  0
 35 75  1  0
 35 76  1  0
 40 77  1  0
A    1
C4
A    2
C5
A    3
C6
A    4
C7
A    5
C8
A    6
C10
A    7
C13
A    8
C15
A    9
C17
A   10
C20
A   11
C21
A   12
C22
A   13
C24
A   14
C26
A   15
C28
A   16
C1
A   17
C2
A   18
C3
A   19
C9
A   20
C11
A   21
C12
A   22
C14
A   23
C16
A   24
C18
A   25
C19
A   26
C23
A   27
C25
A   28
C27
A   29
C29
A   30
C30
A   31
C31
A   32
C32
A   33
C33
A   34
C34
A   35
C35
A   36
N36
A   37
N37
A   38
O38
A   39
O39
A   40
O40
A   41
O41
M  END
