6B98_D07_A_1003
     RDKit          3D

 21 22  0  0  0  0  0  0  0  0999 V2000
   31.5180   -6.3170    8.8160 C   0  0  0  0  0  0  0  0  0  0  0  0
   30.4750   -4.6360   11.7680 C   0  0  0  0  0  0  0  0  0  0  0  0
   31.8990   -4.9380   14.6970 N   0  0  0  0  0  0  0  0  0  0  0  0
   32.2410   -5.5210   13.5360 C   0  0  0  0  0  0  0  0  0  0  0  0
   35.0110   -8.0830   12.5200 Cl  0  0  0  0  0  0  0  0  0  0  0  0
   33.6690   -6.9810   12.4850 C   0  0  0  0  0  0  0  0  0  0  0  0
   33.1090   -6.8930   11.2670 N   0  0  0  0  0  0  0  0  0  0  0  0
   32.0610   -6.0460   11.2460 C   0  0  0  0  0  0  0  0  0  0  0  0
   33.3200   -6.3490   13.6360 N   0  0  0  0  0  0  0  0  0  0  0  0
   30.8060   -3.9770   14.8940 C   0  0  0  0  0  0  0  0  0  0  0  0
   31.5400   -5.3320   12.3280 C   0  0  0  0  0  0  0  0  0  0  0  0
   30.3540   -4.9170   10.4560 N   0  0  0  0  0  0  0  0  0  0  0  0
   31.3230   -5.7730   10.1500 N   0  0  0  0  0  0  0  0  0  0  0  0
   31.8883   -7.3500    8.8918 H   0  0  0  0  0  0  0  0  0  0  0  0
   30.5612   -6.3094    8.2734 H   0  0  0  0  0  0  0  0  0  0  0  0
   32.2521   -5.7032    8.2734 H   0  0  0  0  0  0  0  0  0  0  0  0
   29.8191   -3.9481   12.3218 H   0  0  0  0  0  0  0  0  0  0  0  0
   32.4555   -5.1885   15.5268 H   0  0  0  0  0  0  0  0  0  0  0  0
   30.6376   -3.8289   15.9709 H   0  0  0  0  0  0  0  0  0  0  0  0
   31.0739   -3.0166   14.4293 H   0  0  0  0  0  0  0  0  0  0  0  0
   29.8878   -4.3657   14.4293 H   0  0  0  0  0  0  0  0  0  0  0  0
  1 13  1  0
 13 12  1  0
 13  8  1  0
 12  2  2  0
  8  7  1  0
  8 11  2  0
  7  6  2  0
  2 11  1  0
 11  4  1  0
  6  5  1  0
  6  9  1  0
  4  9  2  0
  4  3  1  0
  3 10  1  0
  1 14  1  0
  1 15  1  0
  1 16  1  0
  2 17  1  0
  3 18  1  0
 10 19  1  0
 10 20  1  0
 10 21  1  0
A    1
C2
A    2
C3
A    3
N4
A    4
C5
A    5
CL
A    6
C4
A    7
N2
A    8
C1
A    9
N3
A   10
C6
A   11
C
A   12
N1
A   13
N
M  END
