6BD7_D7J_A_602
     RDKit          3D

 72 73  0  0  0  0  0  0  0  0999 V2000
  -14.2720  -33.7720   -6.3960 C   0  0  0  0  0  0  0  0  0  0  0  0
  -15.7360  -33.8250   -6.3500 C   0  0  0  0  0  0  0  0  0  0  0  0
  -16.1410  -34.5550   -5.1790 C   0  0  0  0  0  0  0  0  0  0  0  0
  -17.4610  -34.0280   -7.9310 C   0  0  0  0  0  0  0  0  0  0  0  0
  -18.6340  -34.9550   -7.7210 C   0  0  0  0  0  0  0  0  0  0  0  0
  -19.6460  -34.6230  -10.4820 C   0  0  0  0  0  0  0  0  0  0  0  0
  -18.5350  -33.7330  -11.0310 C   0  0  0  0  0  0  0  0  0  0  0  0
  -19.1360  -32.3550  -11.5270 C   0  0  0  0  0  0  0  0  0  0  0  0
  -18.2400  -31.4220  -12.2500 C   0  0  0  0  0  0  0  0  0  0  0  0
  -18.7670  -30.3020  -12.8960 C   0  0  0  0  0  0  0  0  0  0  0  0
  -17.9760  -29.4080  -13.5800 C   0  0  0  0  0  0  0  0  0  0  0  0
  -16.6050  -29.6040  -13.6630 C   0  0  0  0  0  0  0  0  0  0  0  0
  -16.0450  -30.7110  -13.0370 C   0  0  0  0  0  0  0  0  0  0  0  0
  -16.8520  -31.6030  -12.3330 C   0  0  0  0  0  0  0  0  0  0  0  0
  -17.7330  -35.4130  -13.0470 C   0  0  0  0  0  0  0  0  0  0  0  0
  -16.2540  -37.3990  -13.5300 C   0  0  0  0  0  0  0  0  0  0  0  0
  -15.8580  -38.7190  -12.7850 C   0  0  0  0  0  0  0  0  0  0  0  0
  -14.9820  -36.5480  -13.6230 C   0  0  0  0  0  0  0  0  0  0  0  0
  -16.7840  -37.7770  -14.9290 C   0  0  0  0  0  0  0  0  0  0  0  0
  -17.9170  -32.6440   -7.2650 C   0  0  0  0  0  0  0  0  0  0  0  0
  -18.0600  -30.1850   -7.3430 C   0  0  0  0  0  0  0  0  0  0  0  0
  -18.7250  -29.4670   -8.4750 C   0  0  0  0  0  0  0  0  0  0  0  0
  -18.0030  -28.9080   -9.4710 C   0  0  0  0  0  0  0  0  0  0  0  0
  -18.5490  -28.2680  -10.5240 C   0  0  0  0  0  0  0  0  0  0  0  0
  -19.9790  -28.2050  -10.6200 C   0  0  0  0  0  0  0  0  0  0  0  0
  -20.0740  -29.3630   -8.6390 C   0  0  0  0  0  0  0  0  0  0  0  0
  -16.2230  -34.5690   -7.4140 N   0  0  0  0  0  0  0  0  0  0  0  0
  -17.5200  -34.5020  -11.9470 N   0  0  0  0  0  0  0  0  0  0  0  0
  -17.6050  -31.4480   -7.8660 N   0  0  0  0  0  0  0  0  0  0  0  0
  -20.7140  -28.7030   -9.6780 N   0  0  0  0  0  0  0  0  0  0  0  0
  -17.6920  -35.0080  -14.1820 O   0  0  0  0  0  0  0  0  0  0  0  0
  -17.3460  -36.7520  -12.7740 O   0  0  0  0  0  0  0  0  0  0  0  0
  -18.5760  -32.6510   -6.2570 O   0  0  0  0  0  0  0  0  0  0  0  0
  -19.9960  -34.2230   -8.7320 S   0  0  0  0  0  0  0  0  0  0  0  0
  -13.8732  -33.7576   -5.3709 H   0  0  0  0  0  0  0  0  0  0  0  0
  -13.8895  -34.6569   -6.9258 H   0  0  0  0  0  0  0  0  0  0  0  0
  -13.9545  -32.8618   -6.9258 H   0  0  0  0  0  0  0  0  0  0  0  0
  -16.1114  -32.7912   -6.3660 H   0  0  0  0  0  0  0  0  0  0  0  0
  -15.8346  -34.0027   -4.2784 H   0  0  0  0  0  0  0  0  0  0  0  0
  -17.2345  -34.6746   -5.1815 H   0  0  0  0  0  0  0  0  0  0  0  0
  -15.6637  -35.5461   -5.1815 H   0  0  0  0  0  0  0  0  0  0  0  0
  -17.2211  -33.8832   -8.9947 H   0  0  0  0  0  0  0  0  0  0  0  0
  -18.9154  -34.9901   -6.6582 H   0  0  0  0  0  0  0  0  0  0  0  0
  -18.4054  -35.9895   -8.0169 H   0  0  0  0  0  0  0  0  0  0  0  0
  -20.5585  -34.4683  -11.0765 H   0  0  0  0  0  0  0  0  0  0  0  0
  -19.3203  -35.6718  -10.5450 H   0  0  0  0  0  0  0  0  0  0  0  0
  -17.8468  -33.4296  -10.2283 H   0  0  0  0  0  0  0  0  0  0  0  0
  -19.5123  -31.8247  -10.6398 H   0  0  0  0  0  0  0  0  0  0  0  0
  -19.8933  -32.6395  -12.2723 H   0  0  0  0  0  0  0  0  0  0  0  0
  -19.8525  -30.1284  -12.8567 H   0  0  0  0  0  0  0  0  0  0  0  0
  -18.4333  -28.5325  -14.0640 H   0  0  0  0  0  0  0  0  0  0  0  0
  -15.9715  -28.8945  -14.2155 H   0  0  0  0  0  0  0  0  0  0  0  0
  -14.9604  -30.8840  -13.0973 H   0  0  0  0  0  0  0  0  0  0  0  0
  -16.3905  -32.4668  -11.8321 H   0  0  0  0  0  0  0  0  0  0  0  0
  -15.9070  -38.5556  -11.6983 H   0  0  0  0  0  0  0  0  0  0  0  0
  -16.5547  -39.5222  -13.0668 H   0  0  0  0  0  0  0  0  0  0  0  0
  -14.8342  -39.0061  -13.0668 H   0  0  0  0  0  0  0  0  0  0  0  0
  -14.6255  -36.3095  -12.6101 H   0  0  0  0  0  0  0  0  0  0  0  0
  -14.2045  -37.1085  -14.1628 H   0  0  0  0  0  0  0  0  0  0  0  0
  -15.2034  -35.6155  -14.1628 H   0  0  0  0  0  0  0  0  0  0  0  0
  -17.6755  -38.4128  -14.8239 H   0  0  0  0  0  0  0  0  0  0  0  0
  -17.0487  -36.8626  -15.4802 H   0  0  0  0  0  0  0  0  0  0  0  0
  -16.0057  -38.3251  -15.4802 H   0  0  0  0  0  0  0  0  0  0  0  0
  -17.2067  -29.5989   -6.9710 H   0  0  0  0  0  0  0  0  0  0  0  0
  -18.7554  -30.3312   -6.5033 H   0  0  0  0  0  0  0  0  0  0  0  0
  -16.9065  -28.9794   -9.4195 H   0  0  0  0  0  0  0  0  0  0  0  0
  -17.9127  -27.8045  -11.2923 H   0  0  0  0  0  0  0  0  0  0  0  0
  -20.4511  -27.7333  -11.4945 H   0  0  0  0  0  0  0  0  0  0  0  0
  -20.7106  -29.8441   -7.8818 H   0  0  0  0  0  0  0  0  0  0  0  0
  -16.3889  -35.5346   -7.0964 H   0  0  0  0  0  0  0  0  0  0  0  0
  -16.5295  -34.3267  -11.7254 H   0  0  0  0  0  0  0  0  0  0  0  0
  -17.0268  -31.4549   -8.7184 H   0  0  0  0  0  0  0  0  0  0  0  0
 19 16  1  0
 31 15  2  0
 12 11  1  0
 12 13  2  0
 18 16  1  0
 11 10  2  0
 16 17  1  0
 16 32  1  0
 15 32  1  0
 15 28  1  0
 13 14  1  0
 10  9  1  0
 14  9  2  0
  9  8  1  0
 28  7  1  0
  8  7  1  0
  7  6  1  0
 25 24  1  0
 25 30  2  0
 24 23  2  0
  6 34  1  0
 30 26  1  0
 23 22  1  0
 34  5  1  0
 26 22  2  0
 22 21  1  0
  4  5  1  0
  4 27  1  0
  4 20  1  0
 29 21  1  0
 29 20  1  0
 27  2  1  0
 20 33  2  0
  1  2  1  0
  2  3  1  0
  1 35  1  0
  1 36  1  0
  1 37  1  0
  2 38  1  0
  3 39  1  0
  3 40  1  0
  3 41  1  0
  4 42  1  0
  5 43  1  0
  5 44  1  0
  6 45  1  0
  6 46  1  0
  7 47  1  0
  8 48  1  0
  8 49  1  0
 10 50  1  0
 11 51  1  0
 12 52  1  0
 13 53  1  0
 14 54  1  0
 17 55  1  0
 17 56  1  0
 17 57  1  0
 18 58  1  0
 18 59  1  0
 18 60  1  0
 19 61  1  0
 19 62  1  0
 19 63  1  0
 21 64  1  0
 21 65  1  0
 23 66  1  0
 24 67  1  0
 25 68  1  0
 26 69  1  0
 27 70  1  0
 28 71  1  0
 29 72  1  0
A    1
C01
A    2
C02
A    3
C03
A    4
C05
A    5
C06
A    6
C08
A    7
C09
A    8
C10
A    9
C11
A   10
C12
A   11
C13
A   12
C14
A   13
C15
A   14
C16
A   15
C18
A   16
C21
A   17
C22
A   18
C23
A   19
C24
A   20
C25
A   21
C28
A   22
C29
A   23
C30
A   24
C31
A   25
C32
A   26
C34
A   27
N04
A   28
N17
A   29
N27
A   30
N33
A   31
O19
A   32
O20
A   33
O26
A   34
S07
M  END
