6BDI_DEJ_A_602
     RDKit          3D

 76 78  0  0  0  0  0  0  0  0999 V2000
  -23.3360  -19.4410   -9.2840 C   0  0  0  0  0  0  0  0  0  0  0  0
  -24.1190  -18.2110   -8.7290 C   0  0  0  0  0  0  0  0  0  0  0  0
  -24.2150  -17.1990   -9.8630 C   0  0  0  0  0  0  0  0  0  0  0  0
  -21.9250  -17.4900   -7.6090 C   0  0  0  0  0  0  0  0  0  0  0  0
  -21.3110  -16.0900   -7.3890 C   0  0  0  0  0  0  0  0  0  0  0  0
  -19.0950  -17.6810   -9.0300 C   0  0  0  0  0  0  0  0  0  0  0  0
  -19.5780  -17.9050  -10.5060 C   0  0  0  0  0  0  0  0  0  0  0  0
  -20.8410  -17.0330  -10.8350 C   0  0  0  0  0  0  0  0  0  0  0  0
  -20.8930  -16.2730  -12.1060 C   0  0  0  0  0  0  0  0  0  0  0  0
  -19.9990  -16.4890  -13.1750 C   0  0  0  0  0  0  0  0  0  0  0  0
  -21.3970  -14.7930  -13.8490 C   0  0  0  0  0  0  0  0  0  0  0  0
  -21.7900  -15.1770  -12.5480 C   0  0  0  0  0  0  0  0  0  0  0  0
  -22.8900  -14.4560  -12.0030 C   0  0  0  0  0  0  0  0  0  0  0  0
  -23.5350  -13.4380  -12.7190 C   0  0  0  0  0  0  0  0  0  0  0  0
  -23.1060  -13.0930  -14.0190 C   0  0  0  0  0  0  0  0  0  0  0  0
  -22.0400  -13.7650  -14.5940 C   0  0  0  0  0  0  0  0  0  0  0  0
  -20.4650  -19.8930  -11.9460 C   0  0  0  0  0  0  0  0  0  0  0  0
  -22.4930  -21.1990  -12.8970 C   0  0  0  0  0  0  0  0  0  0  0  0
  -23.8050  -21.7790  -12.3250 C   0  0  0  0  0  0  0  0  0  0  0  0
  -21.7600  -22.3830  -13.5980 C   0  0  0  0  0  0  0  0  0  0  0  0
  -22.8470  -20.0840  -13.8940 C   0  0  0  0  0  0  0  0  0  0  0  0
  -21.2390  -18.5780   -6.7320 C   0  0  0  0  0  0  0  0  0  0  0  0
  -20.3530  -21.0530   -6.8840 C   0  0  0  0  0  0  0  0  0  0  0  0
  -19.9510  -21.7490   -8.1550 C   0  0  0  0  0  0  0  0  0  0  0  0
  -20.8620  -22.1110   -9.1190 C   0  0  0  0  0  0  0  0  0  0  0  0
  -20.5100  -22.7160  -10.3020 C   0  0  0  0  0  0  0  0  0  0  0  0
  -19.1660  -22.9430  -10.5410 C   0  0  0  0  0  0  0  0  0  0  0  0
  -18.6520  -22.0030   -8.4860 C   0  0  0  0  0  0  0  0  0  0  0  0
  -23.4450  -17.5840   -7.4600 N   0  0  0  0  0  0  0  0  0  0  0  0
  -20.3010  -15.5900  -14.2420 N   0  0  0  0  0  0  0  0  0  0  0  0
  -19.8220  -19.3420  -10.7740 N   0  0  0  0  0  0  0  0  0  0  0  0
  -20.9620  -19.8140   -7.2950 N   0  0  0  0  0  0  0  0  0  0  0  0
  -18.2670  -22.6070   -9.6270 N   0  0  0  0  0  0  0  0  0  0  0  0
  -19.6880  -20.4300  -12.7720 O   0  0  0  0  0  0  0  0  0  0  0  0
  -21.7160  -20.5540  -11.8250 O   0  0  0  0  0  0  0  0  0  0  0  0
  -20.9230  -18.2670   -5.5540 O   0  0  0  0  0  0  0  0  0  0  0  0
  -19.6600  -16.0250   -8.2600 S   0  0  0  0  0  0  0  0  0  0  0  0
  -22.9539  -20.0413   -8.4452 H   0  0  0  0  0  0  0  0  0  0  0  0
  -24.0087  -20.0568   -9.8991 H   0  0  0  0  0  0  0  0  0  0  0  0
  -22.4934  -19.0922   -9.8991 H   0  0  0  0  0  0  0  0  0  0  0  0
  -25.1177  -18.5284   -8.3946 H   0  0  0  0  0  0  0  0  0  0  0  0
  -24.3110  -16.1866   -9.4438 H   0  0  0  0  0  0  0  0  0  0  0  0
  -23.3075  -17.2549  -10.4822 H   0  0  0  0  0  0  0  0  0  0  0  0
  -25.0958  -17.4246  -10.4822 H   0  0  0  0  0  0  0  0  0  0  0  0
  -21.7196  -17.6834   -8.6722 H   0  0  0  0  0  0  0  0  0  0  0  0
  -21.1703  -15.9113   -6.3128 H   0  0  0  0  0  0  0  0  0  0  0  0
  -21.9811  -15.3164   -7.7922 H   0  0  0  0  0  0  0  0  0  0  0  0
  -19.4881  -18.5007   -8.4107 H   0  0  0  0  0  0  0  0  0  0  0  0
  -17.9957  -17.6562   -9.0587 H   0  0  0  0  0  0  0  0  0  0  0  0
  -18.7715  -17.5742  -11.1769 H   0  0  0  0  0  0  0  0  0  0  0  0
  -20.9454  -16.3012  -10.0204 H   0  0  0  0  0  0  0  0  0  0  0  0
  -21.6453  -17.7753  -10.9452 H   0  0  0  0  0  0  0  0  0  0  0  0
  -19.1919  -17.2363  -13.1851 H   0  0  0  0  0  0  0  0  0  0  0  0
  -23.2437  -14.7048  -10.9916 H   0  0  0  0  0  0  0  0  0  0  0  0
  -24.3822  -12.9037  -12.2643 H   0  0  0  0  0  0  0  0  0  0  0  0
  -23.6171  -12.2925  -14.5739 H   0  0  0  0  0  0  0  0  0  0  0  0
  -21.6969  -13.5089  -15.6073 H   0  0  0  0  0  0  0  0  0  0  0  0
  -23.7652  -21.7614  -11.2259 H   0  0  0  0  0  0  0  0  0  0  0  0
  -24.6553  -21.1729  -12.6709 H   0  0  0  0  0  0  0  0  0  0  0  0
  -23.9290  -22.8158  -12.6709 H   0  0  0  0  0  0  0  0  0  0  0  0
  -21.3421  -23.0580  -12.8365 H   0  0  0  0  0  0  0  0  0  0  0  0
  -22.4740  -22.9360  -14.2260 H   0  0  0  0  0  0  0  0  0  0  0  0
  -20.9467  -21.9905  -14.2260 H   0  0  0  0  0  0  0  0  0  0  0  0
  -23.1350  -19.1769  -13.3425 H   0  0  0  0  0  0  0  0  0  0  0  0
  -21.9736  -19.8668  -14.5265 H   0  0  0  0  0  0  0  0  0  0  0  0
  -23.6857  -20.4104  -14.5265 H   0  0  0  0  0  0  0  0  0  0  0  0
  -21.0726  -21.6663   -6.3218 H   0  0  0  0  0  0  0  0  0  0  0  0
  -19.4899  -20.8822   -6.2237 H   0  0  0  0  0  0  0  0  0  0  0  0
  -21.9268  -21.9060   -8.9342 H   0  0  0  0  0  0  0  0  0  0  0  0
  -21.2737  -23.0109  -11.0367 H   0  0  0  0  0  0  0  0  0  0  0  0
  -18.8444  -23.4014  -11.4878 H   0  0  0  0  0  0  0  0  0  0  0  0
  -17.8698  -21.6952   -7.7765 H   0  0  0  0  0  0  0  0  0  0  0  0
  -23.8245  -16.6376   -7.3146 H   0  0  0  0  0  0  0  0  0  0  0  0
  -19.8048  -15.5330  -15.1428 H   0  0  0  0  0  0  0  0  0  0  0  0
  -19.5037  -20.0109  -10.0583 H   0  0  0  0  0  0  0  0  0  0  0  0
  -21.2778  -19.8587   -8.2744 H   0  0  0  0  0  0  0  0  0  0  0  0
 16 15  1  0
 16 11  2  0
 30 11  1  0
 30 10  1  0
 15 14  2  0
 21 18  1  0
 11 12  1  0
 20 18  1  0
 10  9  2  0
 18 19  1  0
 18 35  1  0
 34 17  2  0
 14 13  1  0
 12  9  1  0
 12 13  2  0
  9  8  1  0
 17 35  1  0
 17 31  1  0
  8  7  1  0
 31  7  1  0
 27 26  1  0
 27 33  2  0
  7  6  1  0
 26 25  2  0
  3  2  1  0
 33 28  1  0
  1  2  1  0
 25 24  1  0
  6 37  1  0
  2 29  1  0
 28 24  2  0
 37  5  1  0
 24 23  1  0
  4 29  1  0
  4  5  1  0
  4 22  1  0
 32 23  1  0
 32 22  1  0
 22 36  2  0
  1 38  1  0
  1 39  1  0
  1 40  1  0
  2 41  1  0
  3 42  1  0
  3 43  1  0
  3 44  1  0
  4 45  1  0
  5 46  1  0
  5 47  1  0
  6 48  1  0
  6 49  1  0
  7 50  1  0
  8 51  1  0
  8 52  1  0
 10 53  1  0
 13 54  1  0
 14 55  1  0
 15 56  1  0
 16 57  1  0
 19 58  1  0
 19 59  1  0
 19 60  1  0
 20 61  1  0
 20 62  1  0
 20 63  1  0
 21 64  1  0
 21 65  1  0
 21 66  1  0
 23 67  1  0
 23 68  1  0
 25 69  1  0
 26 70  1  0
 27 71  1  0
 28 72  1  0
 29 73  1  0
 30 74  1  0
 31 75  1  0
 32 76  1  0
A    1
C01
A    2
C02
A    3
C03
A    4
C05
A    5
C06
A    6
C08
A    7
C09
A    8
C10
A    9
C11
A   10
C12
A   11
C14
A   12
C15
A   13
C16
A   14
C17
A   15
C18
A   16
C19
A   17
C21
A   18
C24
A   19
C25
A   20
C26
A   21
C27
A   22
C28
A   23
C31
A   24
C32
A   25
C33
A   26
C34
A   27
C35
A   28
C37
A   29
N04
A   30
N13
A   31
N20
A   32
N30
A   33
N36
A   34
O22
A   35
O23
A   36
O29
A   37
S07
M  END
