5LBY_6T2_A_303
     RDKit          3D

 62 67  0  0  0  0  0  0  0  0999 V2000
    0.1000  -11.3150   15.9020 C   0  0  0  0  0  0  0  0  0  0  0  0
   -0.0960   -8.8910   16.2180 C   0  0  0  0  0  0  0  0  0  0  0  0
   -1.1730   -9.0270   17.1190 C   0  0  0  0  0  0  0  0  0  0  0  0
   -1.7330   -7.8890   17.6260 C   0  0  0  0  0  0  0  0  0  0  0  0
    6.3080  -10.4870   13.0830 C   0  0  0  0  0  0  0  0  0  0  0  0
   -1.1750   -6.6400   17.3330 C   0  0  0  0  0  0  0  0  0  0  0  0
   -0.0680   -6.5680   16.4730 C   0  0  0  0  0  0  0  0  0  0  0  0
    1.7410  -10.1160   15.0640 C   0  0  0  0  0  0  0  0  0  0  0  0
    2.0160  -11.4600   14.9150 C   0  0  0  0  0  0  0  0  0  0  0  0
    0.5040   -5.2850   16.1990 C   0  0  0  0  0  0  0  0  0  0  0  0
    3.1940  -11.9120   14.3320 C   0  0  0  0  0  0  0  0  0  0  0  0
    4.1050  -10.9310   13.9150 C   0  0  0  0  0  0  0  0  0  0  0  0
   -0.0740   -4.1800   16.7350 C   0  0  0  0  0  0  0  0  0  0  0  0
   -1.1690   -4.2280   17.6020 C   0  0  0  0  0  0  0  0  0  0  0  0
    1.8860   -3.9680   14.7130 C   0  0  0  0  0  0  0  0  0  0  0  0
    2.9520   -4.0370   13.6910 C   0  0  0  0  0  0  0  0  0  0  0  0
    4.2670   -4.5230   14.3180 C   0  0  0  0  0  0  0  0  0  0  0  0
    5.3240   -4.6650   13.3040 N   0  0  0  0  0  0  0  0  0  0  0  0
    4.0050   -5.8790   15.0120 C   0  0  0  0  0  0  0  0  0  0  0  0
    2.8630   -5.8130   16.0160 C   0  0  0  0  0  0  0  0  0  0  0  0
    1.6210   -5.2840   15.3500 N   0  0  0  0  0  0  0  0  0  0  0  0
    0.4500   -7.7190   15.9430 N   0  0  0  0  0  0  0  0  0  0  0  0
   -1.7230   -5.4510   17.8760 C   0  0  0  0  0  0  0  0  0  0  0  0
    0.5240  -10.0270   15.7030 N   0  0  0  0  0  0  0  0  0  0  0  0
    0.9690  -12.2050   15.4160 N   0  0  0  0  0  0  0  0  0  0  0  0
    2.6090   -9.1660   14.5930 C   0  0  0  0  0  0  0  0  0  0  0  0
    3.7890   -9.5970   14.0260 C   0  0  0  0  0  0  0  0  0  0  0  0
    5.2830  -11.4500   13.3990 O   0  0  0  0  0  0  0  0  0  0  0  0
    7.5560  -11.3180   12.7820 C   0  0  0  0  0  0  0  0  0  0  0  0
    8.1920  -11.9400   14.0190 C   0  0  0  0  0  0  0  0  0  0  0  0
    8.6440  -10.4870   12.0790 C   0  0  0  0  0  0  0  0  0  0  0  0
    8.4310  -11.6440   10.9630 O   0  0  0  0  0  0  0  0  0  0  0  0
    7.4800  -12.2870   11.6860 C   0  0  0  0  0  0  0  0  0  0  0  0
   -0.8425  -11.5833   16.4018 H   0  0  0  0  0  0  0  0  0  0  0  0
   -1.5505  -10.0199   17.4047 H   0  0  0  0  0  0  0  0  0  0  0  0
   -2.6250   -7.9548   18.2663 H   0  0  0  0  0  0  0  0  0  0  0  0
    6.4863   -9.8182   13.9379 H   0  0  0  0  0  0  0  0  0  0  0  0
    6.0246   -9.8467   12.2346 H   0  0  0  0  0  0  0  0  0  0  0  0
    3.4011  -12.9847   14.2042 H   0  0  0  0  0  0  0  0  0  0  0  0
    0.3411   -3.1955   16.4733 H   0  0  0  0  0  0  0  0  0  0  0  0
   -1.5748   -3.3098   18.0518 H   0  0  0  0  0  0  0  0  0  0  0  0
    2.1905   -3.2540   15.4924 H   0  0  0  0  0  0  0  0  0  0  0  0
    0.9614   -3.6485   14.2099 H   0  0  0  0  0  0  0  0  0  0  0  0
    3.1047   -3.0370   13.2590 H   0  0  0  0  0  0  0  0  0  0  0  0
    2.6481   -4.7462   12.9070 H   0  0  0  0  0  0  0  0  0  0  0  0
    4.6146   -3.7799   15.0508 H   0  0  0  0  0  0  0  0  0  0  0  0
    6.2338   -4.7872   13.7712 H   0  0  0  0  0  0  0  0  0  0  0  0
    5.1270   -5.4871   12.7155 H   0  0  0  0  0  0  0  0  0  0  0  0
    3.7555   -6.6254   14.2435 H   0  0  0  0  0  0  0  0  0  0  0  0
    4.9170   -6.1524   15.5630 H   0  0  0  0  0  0  0  0  0  0  0  0
    2.6645   -6.8212   16.4085 H   0  0  0  0  0  0  0  0  0  0  0  0
    3.1451   -5.1406   16.8396 H   0  0  0  0  0  0  0  0  0  0  0  0
   -2.6071   -5.5109   18.5278 H   0  0  0  0  0  0  0  0  0  0  0  0
    2.3717   -8.0943   14.6651 H   0  0  0  0  0  0  0  0  0  0  0  0
    4.5021   -8.8488   13.6495 H   0  0  0  0  0  0  0  0  0  0  0  0
    7.7431  -11.5010   14.9222 H   0  0  0  0  0  0  0  0  0  0  0  0
    8.0181  -13.0261   14.0139 H   0  0  0  0  0  0  0  0  0  0  0  0
    9.2740  -11.7419   14.0139 H   0  0  0  0  0  0  0  0  0  0  0  0
    9.6280  -10.4628   12.5700 H   0  0  0  0  0  0  0  0  0  0  0  0
    8.5945   -9.4045   11.8901 H   0  0  0  0  0  0  0  0  0  0  0  0
    6.4975  -12.3134   11.1920 H   0  0  0  0  0  0  0  0  0  0  0  0
    7.6149  -13.3553   11.9107 H   0  0  0  0  0  0  0  0  0  0  0  0
 32 33  1  0
 32 31  1  0
 33 29  1  0
 31 29  1  0
 29  5  1  0
 29 30  1  0
  5 28  1  0
 18 17  1  0
 28 12  1  0
 16 17  1  0
 16 15  1  0
 12 27  2  0
 12 11  1  0
 27 26  1  0
 17 19  1  0
 11  9  2  0
 26  8  2  0
 15 21  1  0
  9  8  1  0
  9 25  1  0
 19 20  1  0
  8 24  1  0
 21 20  1  0
 21 10  1  0
 25  1  2  0
 24  1  1  0
 24  2  1  0
 22  2  1  0
 22  7  2  0
 10  7  1  0
 10 13  2  0
  2  3  2  0
  7  6  1  0
 13 14  1  0
  3  4  1  0
  6  4  2  0
  6 23  1  0
 14 23  2  0
  1 34  1  0
  3 35  1  0
  4 36  1  0
  5 37  1  0
  5 38  1  0
 11 39  1  0
 13 40  1  0
 14 41  1  0
 15 42  1  0
 15 43  1  0
 16 44  1  0
 16 45  1  0
 17 46  1  0
 18 47  1  0
 18 48  1  0
 19 49  1  0
 19 50  1  0
 20 51  1  0
 20 52  1  0
 23 53  1  0
 26 54  1  0
 27 55  1  0
 30 56  1  0
 30 57  1  0
 30 58  1  0
 31 59  1  0
 31 60  1  0
 33 61  1  0
 33 62  1  0
A    1
C1
A    2
C2
A    3
C3
A    4
C4
A    5
C5
A    6
C6
A    7
C7
A    8
C9
A    9
C10
A   10
C11
A   11
C12
A   12
C13
A   13
C14
A   14
C15
A   15
C30
A   16
C40
A   17
C50
A   18
N80
A   19
C60
A   20
C70
A   21
N4
A   22
N3
A   23
C16
A   24
N1
A   25
N2
A   26
C19
A   27
C18
A   28
O1
A   29
C23
A   30
C27
A   31
C24
A   32
O2
A   33
C26
M  END
