6BRC_E5J_A_501
     RDKit          3D

 70 73  0  0  0  0  0  0  0  0999 V2000
    7.8350   31.4800   -8.7910 C   0  0  0  0  0  0  0  0  0  0  0  0
    0.3360   26.4660   -9.2440 C   0  0  0  0  0  0  0  0  0  0  0  0
    7.2480   29.7740   -6.9710 C   0  0  0  0  0  0  0  0  0  0  0  0
    5.4530   31.1430   -8.0700 C   0  0  0  0  0  0  0  0  0  0  0  0
    3.8360   32.9220   -8.4020 C   0  0  0  0  0  0  0  0  0  0  0  0
   10.9670   28.2110   -8.8550 C   0  0  0  0  0  0  0  0  0  0  0  0
   11.9660   30.2990   -8.1580 C   0  0  0  0  0  0  0  0  0  0  0  0
    5.1530   32.4880   -8.3450 C   0  0  0  0  0  0  0  0  0  0  0  0
    4.4000   30.2380   -7.8350 C   0  0  0  0  0  0  0  0  0  0  0  0
    3.0900   30.6570   -7.8980 C   0  0  0  0  0  0  0  0  0  0  0  0
    2.8050   31.9950   -8.1900 C   0  0  0  0  0  0  0  0  0  0  0  0
    6.7730   30.7560   -7.9940 N   0  0  0  0  0  0  0  0  0  0  0  0
   10.8910   29.3340   -7.9180 N   0  0  0  0  0  0  0  0  0  0  0  0
    8.4570   28.9870   -7.4010 C   0  0  0  0  0  0  0  0  0  0  0  0
    1.5030   32.5320   -8.2620 N   0  0  0  0  0  0  0  0  0  0  0  0
   -3.3980   29.8990   -9.6690 Cl  0  0  0  0  0  0  0  0  0  0  0  0
   -1.2230   25.7500   -8.7410 P   0  0  0  0  0  0  0  0  0  0  0  0
    3.4550   34.1980   -8.6930 O   0  0  0  0  0  0  0  0  0  0  0  0
   -1.2670   24.3080   -9.1330 O   0  0  0  0  0  0  0  0  0  0  0  0
   -0.5920   28.6960   -9.6090 N   0  0  0  0  0  0  0  0  0  0  0  0
    0.4340   30.6700   -8.9480 N   0  0  0  0  0  0  0  0  0  0  0  0
   -0.7940   32.6770   -8.5380 N   0  0  0  0  0  0  0  0  0  0  0  0
    9.5530   29.9470   -7.8230 C   0  0  0  0  0  0  0  0  0  0  0  0
    9.0750   30.6640   -9.0750 C   0  0  0  0  0  0  0  0  0  0  0  0
    0.3480   31.9570   -8.5960 C   0  0  0  0  0  0  0  0  0  0  0  0
    0.5290   27.8160   -9.5850 C   0  0  0  0  0  0  0  0  0  0  0  0
    4.4560   35.2090   -8.8340 C   0  0  0  0  0  0  0  0  0  0  0  0
   -1.1320   25.8180   -6.9530 C   0  0  0  0  0  0  0  0  0  0  0  0
   -2.7560   26.4420   -9.3420 C   0  0  0  0  0  0  0  0  0  0  0  0
    1.4210   25.5720   -9.2530 C   0  0  0  0  0  0  0  0  0  0  0  0
   -0.6980   30.0250   -9.2460 C   0  0  0  0  0  0  0  0  0  0  0  0
    1.8190   28.2150   -9.9590 C   0  0  0  0  0  0  0  0  0  0  0  0
    2.6910   26.0120   -9.5930 C   0  0  0  0  0  0  0  0  0  0  0  0
    2.8830   27.3330   -9.9560 C   0  0  0  0  0  0  0  0  0  0  0  0
   -1.9160   30.7060   -9.2450 C   0  0  0  0  0  0  0  0  0  0  0  0
   -1.9180   32.0390   -8.8890 C   0  0  0  0  0  0  0  0  0  0  0  0
    8.1355   32.3758   -8.2277 H   0  0  0  0  0  0  0  0  0  0  0  0
    7.3860   31.7144   -9.7674 H   0  0  0  0  0  0  0  0  0  0  0  0
    7.5009   30.3244   -6.0528 H   0  0  0  0  0  0  0  0  0  0  0  0
    6.4330   29.0515   -6.8172 H   0  0  0  0  0  0  0  0  0  0  0  0
   11.0308   27.2678   -8.2925 H   0  0  0  0  0  0  0  0  0  0  0  0
   10.0675   28.2002   -9.4881 H   0  0  0  0  0  0  0  0  0  0  0  0
   11.8597   28.3215   -9.4881 H   0  0  0  0  0  0  0  0  0  0  0  0
   12.3616   30.6542   -7.1950 H   0  0  0  0  0  0  0  0  0  0  0  0
   12.7719   29.8155   -8.7296 H   0  0  0  0  0  0  0  0  0  0  0  0
   11.5720   31.1522   -8.7296 H   0  0  0  0  0  0  0  0  0  0  0  0
    5.9702   33.2040   -8.5168 H   0  0  0  0  0  0  0  0  0  0  0  0
    4.6260   29.1876   -7.5991 H   0  0  0  0  0  0  0  0  0  0  0  0
    2.2720   29.9435   -7.7197 H   0  0  0  0  0  0  0  0  0  0  0  0
    8.1909   28.3373   -8.2478 H   0  0  0  0  0  0  0  0  0  0  0  0
    8.8110   28.3668   -6.5643 H   0  0  0  0  0  0  0  0  0  0  0  0
    1.4334   33.5300   -8.0168 H   0  0  0  0  0  0  0  0  0  0  0  0
   -1.4654   28.2721   -9.9530 H   0  0  0  0  0  0  0  0  0  0  0  0
    9.7211   30.6939   -7.0331 H   0  0  0  0  0  0  0  0  0  0  0  0
    8.8455   29.9189   -9.8509 H   0  0  0  0  0  0  0  0  0  0  0  0
    9.8708   31.3425   -9.4161 H   0  0  0  0  0  0  0  0  0  0  0  0
    4.7847   35.5410   -7.8381 H   0  0  0  0  0  0  0  0  0  0  0  0
    5.3150   34.8000   -9.3862 H   0  0  0  0  0  0  0  0  0  0  0  0
    4.0385   36.0639   -9.3862 H   0  0  0  0  0  0  0  0  0  0  0  0
   -1.9425   25.2124   -6.5213 H   0  0  0  0  0  0  0  0  0  0  0  0
   -0.1612   25.4222   -6.6199 H   0  0  0  0  0  0  0  0  0  0  0  0
   -1.2364   26.8612   -6.6199 H   0  0  0  0  0  0  0  0  0  0  0  0
   -3.3888   26.7276   -8.4888 H   0  0  0  0  0  0  0  0  0  0  0  0
   -2.5422   27.3309   -9.9537 H   0  0  0  0  0  0  0  0  0  0  0  0
   -3.2812   25.6937   -9.9537 H   0  0  0  0  0  0  0  0  0  0  0  0
    1.2612   24.5163   -8.9885 H   0  0  0  0  0  0  0  0  0  0  0  0
    1.9895   29.2583  -10.2632 H   0  0  0  0  0  0  0  0  0  0  0  0
    3.5414   25.3145   -9.5742 H   0  0  0  0  0  0  0  0  0  0  0  0
    3.8857   27.6825  -10.2432 H   0  0  0  0  0  0  0  0  0  0  0  0
   -2.8685   32.5927   -8.8936 H   0  0  0  0  0  0  0  0  0  0  0  0
 32 34  2  0
 32 26  1  0
 34 33  1  0
 16 35  1  0
 20 26  1  0
 20 31  1  0
 33 30  2  0
 26  2  2  0
 29 17  1  0
 30  2  1  0
 31 35  1  0
 31 21  2  0
 35 36  2  0
  2 17  1  0
 19 17  2  0
 24  1  1  0
 24 23  1  0
 21 25  1  0
 36 22  1  0
  6 13  1  0
 27 18  1  0
  1 12  1  0
 17 28  1  0
 18  5  1  0
 25 22  2  0
 25 15  1  0
  5  8  2  0
  5 11  1  0
  8  4  1  0
 15 11  1  0
 11 10  2  0
  7 13  1  0
  4 12  1  0
  4  9  2  0
 12  3  1  0
 13 23  1  0
 10  9  1  0
 23 14  1  0
 14  3  1  0
  1 37  1  0
  1 38  1  0
  3 39  1  0
  3 40  1  0
  6 41  1  0
  6 42  1  0
  6 43  1  0
  7 44  1  0
  7 45  1  0
  7 46  1  0
  8 47  1  0
  9 48  1  0
 10 49  1  0
 14 50  1  0
 14 51  1  0
 15 52  1  0
 20 53  1  0
 23 54  1  0
 24 55  1  0
 24 56  1  0
 27 57  1  0
 27 58  1  0
 27 59  1  0
 28 60  1  0
 28 61  1  0
 28 62  1  0
 29 63  1  0
 29 64  1  0
 29 65  1  0
 30 66  1  0
 32 67  1  0
 33 68  1  0
 34 69  1  0
 36 70  1  0
A    1
C4
A    2
C14
A    3
C5
A    4
C6
A    5
C11
A    6
C7
A    7
C8
A    8
C9
A    9
C10
A   10
C12
A   11
C13
A   12
N1
A   13
N2
A   14
C3
A   15
N3
A   16
CL1
A   17
P1
A   18
O1
A   19
O2
A   20
N4
A   21
N5
A   22
N6
A   23
C1
A   24
C2
A   25
C15
A   26
C16
A   27
C17
A   28
C18
A   29
C19
A   30
C20
A   31
C21
A   32
C22
A   33
C23
A   34
C24
A   35
C25
A   36
C26
M  END
