6BTW_E8D_A_403
     RDKit          3D

 40 43  0  0  0  0  0  0  0  0999 V2000
   30.0470    5.5300   13.0910 C   0  0  0  0  0  0  0  0  0  0  0  0
   29.7270    2.4770   16.5200 C   0  0  0  0  0  0  0  0  0  0  0  0
   29.7830    4.4910   13.9920 C   0  0  0  0  0  0  0  0  0  0  0  0
   31.7740    6.4260   14.5550 C   0  0  0  0  0  0  0  0  0  0  0  0
   25.3860   -0.4520   14.2480 C   0  0  0  0  0  0  0  0  0  0  0  0
   31.7220    5.1440   15.3590 C   0  0  0  0  0  0  0  0  0  0  0  0
   29.7480    3.8650   16.3770 C   0  0  0  0  0  0  0  0  0  0  0  0
   25.7220    0.9100   12.2520 C   0  0  0  0  0  0  0  0  0  0  0  0
   25.0520   -0.0740   12.9420 C   0  0  0  0  0  0  0  0  0  0  0  0
   26.4550    0.2270   14.8180 C   0  0  0  0  0  0  0  0  0  0  0  0
   27.1550    1.2130   14.1500 C   0  0  0  0  0  0  0  0  0  0  0  0
   27.4270    2.5880   12.0880 N   0  0  0  0  0  0  0  0  0  0  0  0
   28.5170    4.5660   11.5560 N   0  0  0  0  0  0  0  0  0  0  0  0
   29.3990    5.5150   11.8660 C   0  0  0  0  0  0  0  0  0  0  0  0
   28.9180    3.5330   13.6620 N   0  0  0  0  0  0  0  0  0  0  0  0
   26.7910    1.5700   12.8480 C   0  0  0  0  0  0  0  0  0  0  0  0
   28.2980    3.5910   12.4580 C   0  0  0  0  0  0  0  0  0  0  0  0
   30.9730    6.5250   13.4600 N   0  0  0  0  0  0  0  0  0  0  0  0
   30.4120    4.4700   15.2470 N   0  0  0  0  0  0  0  0  0  0  0  0
   32.5010    7.3430   14.9170 O   0  0  0  0  0  0  0  0  0  0  0  0
   26.8310   -0.0960   16.0690 F   0  0  0  0  0  0  0  0  0  0  0  0
   24.7130   -1.4210   14.9950 O   0  0  0  0  0  0  0  0  0  0  0  0
   24.0470   -0.6980   12.3020 F   0  0  0  0  0  0  0  0  0  0  0  0
   29.0620    1.9080   17.5940 C   0  0  0  0  0  0  0  0  0  0  0  0
   28.4200    2.7050   18.5190 C   0  0  0  0  0  0  0  0  0  0  0  0
   28.4400    4.0760   18.3790 C   0  0  0  0  0  0  0  0  0  0  0  0
   29.0970    4.6680   17.3130 C   0  0  0  0  0  0  0  0  0  0  0  0
   30.2360    1.8378   15.7836 H   0  0  0  0  0  0  0  0  0  0  0  0
   31.9096    5.3809   16.4167 H   0  0  0  0  0  0  0  0  0  0  0  0
   32.4883    4.4630   14.9603 H   0  0  0  0  0  0  0  0  0  0  0  0
   25.4123    1.1742   11.2301 H   0  0  0  0  0  0  0  0  0  0  0  0
   27.9992    1.7176   14.6427 H   0  0  0  0  0  0  0  0  0  0  0  0
   27.1971    2.5745   11.0841 H   0  0  0  0  0  0  0  0  0  0  0  0
   29.6181    6.3051   11.1327 H   0  0  0  0  0  0  0  0  0  0  0  0
   31.0472    7.3679   12.8727 H   0  0  0  0  0  0  0  0  0  0  0  0
   24.7361   -1.3878   15.9842 H   0  0  0  0  0  0  0  0  0  0  0  0
   29.0458    0.8142   17.7098 H   0  0  0  0  0  0  0  0  0  0  0  0
   27.8922    2.2464   19.3682 H   0  0  0  0  0  0  0  0  0  0  0  0
   27.9289    4.7065   19.1215 H   0  0  0  0  0  0  0  0  0  0  0  0
   29.1052    5.7627   17.2056 H   0  0  0  0  0  0  0  0  0  0  0  0
 25 24  1  0
 25 26  2  0
 24  2  2  0
 26 27  1  0
  2  7  1  0
 27  7  2  0
  7 19  1  0
 23  9  1  0
  6 19  1  0
  6  4  1  0
 19  3  1  0
 20  4  2  0
  9  8  1  0
  9  5  2  0
 22  5  1  0
  4 18  1  0
  8 16  2  0
  5 10  1  0
  3 15  1  0
  3  1  2  0
 15 17  2  0
 18  1  1  0
  1 14  1  0
 16 11  1  0
 16 12  1  0
 10 11  2  0
 10 21  1  0
 17 12  1  0
 17 13  1  0
 14 13  2  0
  2 28  1  0
  6 29  1  0
  6 30  1  0
  8 31  1  0
 11 32  1  0
 12 33  1  0
 14 34  1  0
 18 35  1  0
 22 36  1  0
 24 37  1  0
 25 38  1  0
 26 39  1  0
 27 40  1  0
A    1
C4
A    2
C14
A    3
C5
A    4
C6
A    5
C11
A    6
C7
A    7
C8
A    8
C9
A    9
C10
A   10
C12
A   11
C13
A   12
N1
A   13
N2
A   14
C3
A   15
N3
A   16
C1
A   17
C2
A   18
N4
A   19
N5
A   20
O1
A   21
F1
A   22
O2
A   23
F2
A   24
C15
A   25
C16
A   26
C17
A   27
C18
M  END
