6CPA_ZAF_A_309
     RDKit          3D

 60 61  0  0  0  0  0  0  0  0999 V2000
   44.3810   21.7620   33.7870 C   0  0  0  0  0  0  0  0  0  0  0  0
   43.3530   21.9810   33.0060 O   0  0  0  0  0  0  0  0  0  0  0  0
   44.9330   20.7080   33.7910 O   0  0  0  0  0  0  0  0  0  0  0  0
   45.8010   23.7200   33.8630 C   0  0  0  0  0  0  0  0  0  0  0  0
   44.7860   22.8600   34.6250 C   0  0  0  0  0  0  0  0  0  0  0  0
   45.4530   24.3240   32.6120 C   0  0  0  0  0  0  0  0  0  0  0  0
   44.9300   25.5720   32.5610 C   0  0  0  0  0  0  0  0  0  0  0  0
   44.5940   26.1140   31.3700 C   0  0  0  0  0  0  0  0  0  0  0  0
   44.8270   25.4430   30.2220 C   0  0  0  0  0  0  0  0  0  0  0  0
   45.3800   24.2100   30.2690 C   0  0  0  0  0  0  0  0  0  0  0  0
   45.6730   23.6490   31.4630 C   0  0  0  0  0  0  0  0  0  0  0  0
   45.3620   22.1520   35.7500 O   0  0  0  0  0  0  0  0  0  0  0  0
   44.3570   21.6130   37.0050 P   0  0  0  0  0  0  0  0  0  0  0  0
   43.1950   20.7680   36.4200 O   0  0  0  0  0  0  0  0  0  0  0  0
   43.9570   22.8250   37.8750 O   0  0  0  0  0  0  0  0  0  0  0  0
   45.3160   20.6070   38.0430 C   0  0  0  0  0  0  0  0  0  0  0  0
   46.5850   21.2440   38.6590 C   0  0  0  0  0  0  0  0  0  0  0  0
   45.7960   19.4980   37.2930 N   0  0  0  0  0  0  0  0  0  0  0  0
   45.3570   18.2410   37.4320 C   0  0  0  0  0  0  0  0  0  0  0  0
   44.3410   18.0080   38.0120 O   0  0  0  0  0  0  0  0  0  0  0  0
   46.1970   17.2370   36.8460 C   0  0  0  0  0  0  0  0  0  0  0  0
   45.5300   16.7620   35.5390 C   0  0  0  0  0  0  0  0  0  0  0  0
   46.5150   16.1430   37.6990 N   0  0  0  0  0  0  0  0  0  0  0  0
   47.2360   16.1680   38.8220 C   0  0  0  0  0  0  0  0  0  0  0  0
   47.3660   15.1310   39.4080 O   0  0  0  0  0  0  0  0  0  0  0  0
   47.7820   17.3100   39.2160 O   0  0  0  0  0  0  0  0  0  0  0  0
   48.9620   17.2330   39.9760 C   0  0  0  0  0  0  0  0  0  0  0  0
   49.7750   18.4090   40.1040 C   0  0  0  0  0  0  0  0  0  0  0  0
   50.2630   18.9960   38.9920 C   0  0  0  0  0  0  0  0  0  0  0  0
   51.0300   20.1000   39.0890 C   0  0  0  0  0  0  0  0  0  0  0  0
   51.3450   20.5950   40.3010 C   0  0  0  0  0  0  0  0  0  0  0  0
   50.8600   20.0080   41.4110 C   0  0  0  0  0  0  0  0  0  0  0  0
   50.0880   18.9060   41.3200 C   0  0  0  0  0  0  0  0  0  0  0  0
   45.1613   20.2721   34.6500 H   0  0  0  0  0  0  0  0  0  0  0  0
   46.0888   24.5392   34.5384 H   0  0  0  0  0  0  0  0  0  0  0  0
   46.5746   22.9920   33.5775 H   0  0  0  0  0  0  0  0  0  0  0  0
   43.9960   23.5610   34.9322 H   0  0  0  0  0  0  0  0  0  0  0  0
   44.7789   26.1439   33.4884 H   0  0  0  0  0  0  0  0  0  0  0  0
   44.1271   27.1094   31.3354 H   0  0  0  0  0  0  0  0  0  0  0  0
   44.5685   25.8967   29.2539 H   0  0  0  0  0  0  0  0  0  0  0  0
   45.5909   23.6647   29.3373 H   0  0  0  0  0  0  0  0  0  0  0  0
   46.0944   22.6336   31.4994 H   0  0  0  0  0  0  0  0  0  0  0  0
   44.0363   22.5847   38.8321 H   0  0  0  0  0  0  0  0  0  0  0  0
   44.6301   20.3668   38.8687 H   0  0  0  0  0  0  0  0  0  0  0  0
   46.5167   21.2097   39.7563 H   0  0  0  0  0  0  0  0  0  0  0  0
   47.4730   20.6848   38.3292 H   0  0  0  0  0  0  0  0  0  0  0  0
   46.6671   22.2902   38.3292 H   0  0  0  0  0  0  0  0  0  0  0  0
   46.5323   19.6742   36.5946 H   0  0  0  0  0  0  0  0  0  0  0  0
   47.1749   17.7004   36.6485 H   0  0  0  0  0  0  0  0  0  0  0  0
   44.6556   16.1393   35.7789 H   0  0  0  0  0  0  0  0  0  0  0  0
   45.2084   17.6356   34.9530 H   0  0  0  0  0  0  0  0  0  0  0  0
   46.2504   16.1724   34.9530 H   0  0  0  0  0  0  0  0  0  0  0  0
   46.1453   15.2240   37.4166 H   0  0  0  0  0  0  0  0  0  0  0  0
   48.6737   16.9260   40.9922 H   0  0  0  0  0  0  0  0  0  0  0  0
   49.5955   16.5287   39.4169 H   0  0  0  0  0  0  0  0  0  0  0  0
   50.0343   18.5724   38.0029 H   0  0  0  0  0  0  0  0  0  0  0  0
   51.3983   20.5962   38.1790 H   0  0  0  0  0  0  0  0  0  0  0  0
   51.9971   21.4770   40.3838 H   0  0  0  0  0  0  0  0  0  0  0  0
   51.0950   20.4301   42.3992 H   0  0  0  0  0  0  0  0  0  0  0  0
   49.7154   18.4148   42.2310 H   0  0  0  0  0  0  0  0  0  0  0  0
  1  2  2  0
  1  3  1  0
  1  5  1  0
  4  5  1  0
  4  6  1  0
  5 12  1  0
  6  7  2  0
  6 11  1  0
  7  8  1  0
  8  9  2  0
  9 10  1  0
 10 11  2  0
 12 13  1  0
 13 14  2  0
 13 15  1  0
 13 16  1  0
 16 17  1  0
 16 18  1  0
 18 19  1  0
 19 20  2  0
 19 21  1  0
 21 22  1  0
 21 23  1  0
 23 24  1  0
 24 25  2  0
 24 26  1  0
 26 27  1  0
 27 28  1  0
 28 29  2  0
 28 33  1  0
 29 30  1  0
 30 31  2  0
 31 32  1  0
 32 33  2  0
  3 34  1  0
  4 35  1  0
  4 36  1  0
  5 37  1  0
  7 38  1  0
  8 39  1  0
  9 40  1  0
 10 41  1  0
 11 42  1  0
 15 43  1  0
 16 44  1  0
 17 45  1  0
 17 46  1  0
 17 47  1  0
 18 48  1  0
 21 49  1  0
 22 50  1  0
 22 51  1  0
 22 52  1  0
 23 53  1  0
 27 54  1  0
 27 55  1  0
 29 56  1  0
 30 57  1  0
 31 58  1  0
 32 59  1  0
 33 60  1  0
A    1
C1
A    2
O1A
A    3
O1B
A    4
C2A
A    5
C2
A    6
CP1
A    7
CP2
A    8
CP3
A    9
CP4
A   10
CP5
A   11
CP6
A   12
O3
A   13
P3
A   14
O3A
A   15
O3B
A   16
C4
A   17
C4A
A   18
N5
A   19
C6
A   20
O6
A   21
C7
A   22
C7A
A   23
N8
A   24
C9
A   25
O9
A   26
O10
A   27
C11
A   28
C1X
A   29
C2X
A   30
C3X
A   31
C4X
A   32
C5X
A   33
C6X
M  END
