6END_BGK_A_707
     RDKit          3D

 26 28  0  0  0  0  0  0  0  0999 V2000
  -15.7190    1.9020    4.7710 C   0  0  0  0  0  0  0  0  0  0  0  0
  -15.2690    3.0560    4.1730 C   0  0  0  0  0  0  0  0  0  0  0  0
  -11.4280    0.3620   -0.2100 C   0  0  0  0  0  0  0  0  0  0  0  0
  -10.2930    0.4540    0.5700 C   0  0  0  0  0  0  0  0  0  0  0  0
   -9.1760    0.9630    0.0020 C   0  0  0  0  0  0  0  0  0  0  0  0
   -9.1770    1.3680   -1.3100 C   0  0  0  0  0  0  0  0  0  0  0  0
  -10.3070    1.2610   -2.0770 C   0  0  0  0  0  0  0  0  0  0  0  0
  -11.4460    0.7590   -1.5200 C   0  0  0  0  0  0  0  0  0  0  0  0
   -7.9240    1.8970   -1.8930 C   0  0  0  0  0  0  0  0  0  0  0  0
  -14.4860    3.0490    3.1120 N   0  0  0  0  0  0  0  0  0  0  0  0
  -14.1020    1.9300    2.5450 C   0  0  0  0  0  0  0  0  0  0  0  0
  -14.5230    0.7240    3.0910 C   0  0  0  0  0  0  0  0  0  0  0  0
  -15.3300    0.7100    4.2060 C   0  0  0  0  0  0  0  0  0  0  0  0
  -13.3270    1.6720    1.4950 N   0  0  0  0  0  0  0  0  0  0  0  0
  -13.1990    0.4370    1.2470 C   0  0  0  0  0  0  0  0  0  0  0  0
  -13.9900   -0.7090    2.2390 S   0  0  0  0  0  0  0  0  0  0  0  0
  -12.5630   -0.1210    0.2840 O   0  0  0  0  0  0  0  0  0  0  0  0
   -7.0770    2.2630   -1.1330 O   0  0  0  0  0  0  0  0  0  0  0  0
  -16.3623    1.9312    5.6628 H   0  0  0  0  0  0  0  0  0  0  0  0
  -15.5746    4.0239    4.5970 H   0  0  0  0  0  0  0  0  0  0  0  0
  -10.2968    0.1241    1.6194 H   0  0  0  0  0  0  0  0  0  0  0  0
   -8.2560    1.0536    0.5981 H   0  0  0  0  0  0  0  0  0  0  0  0
  -10.2957    1.5766   -3.1307 H   0  0  0  0  0  0  0  0  0  0  0  0
  -12.3670    0.6742   -2.1154 H   0  0  0  0  0  0  0  0  0  0  0  0
   -7.7779    1.9513   -2.9819 H   0  0  0  0  0  0  0  0  0  0  0  0
  -15.6604   -0.2449    4.6407 H   0  0  0  0  0  0  0  0  0  0  0  0
  7  8  2  0
  7  6  1  0
  9  6  1  0
  9 18  2  0
  8  3  1  0
  6  5  2  0
  3 17  1  0
  3  4  2  0
  5  4  1  0
 17 15  1  0
 15 14  2  0
 15 16  1  0
 14 11  1  0
 16 12  1  0
 11 12  1  0
 11 10  2  0
 12 13  2  0
 10  2  1  0
  2  1  2  0
 13  1  1  0
  1 19  1  0
  2 20  1  0
  4 21  1  0
  5 22  1  0
  7 23  1  0
  8 24  1  0
  9 25  1  0
 13 26  1  0
A    1
C1
A    2
C2
A    3
C11
A    4
C12
A    5
C13
A    6
C14
A    7
C15
A    8
C16
A    9
C17
A   10
N3
A   11
C4
A   12
C5
A   13
C6
A   14
N7
A   15
C8
A   16
S9
A   17
O10
A   18
O18
M  END
