6ENX_BJW_A_303
     RDKit          3D

144151  0  0  0  0  0  0  0  0999 V2000
  -20.7650   29.3520   -1.5900 C   0  0  0  0  0  0  0  0  0  0  0  0
  -22.0060   29.3260   -1.0920 C   0  0  0  0  0  0  0  0  0  0  0  0
  -23.0820   28.9810   -1.8560 C   0  0  0  0  0  0  0  0  0  0  0  0
  -20.6090   29.9780    0.4180 C   0  0  0  0  0  0  0  0  0  0  0  0
  -22.9120   28.6150   -3.1230 N   0  0  0  0  0  0  0  0  0  0  0  0
  -20.5550   29.0420   -2.8830 N   0  0  0  0  0  0  0  0  0  0  0  0
    1.0040   24.5730    9.1910 C   0  0  0  0  0  0  0  0  0  0  0  0
    0.7440   23.5160   10.0860 C   0  0  0  0  0  0  0  0  0  0  0  0
    0.0240   22.4170    9.6340 C   0  0  0  0  0  0  0  0  0  0  0  0
   -0.3640   22.3650    8.2900 C   0  0  0  0  0  0  0  0  0  0  0  0
   -0.1150   23.3870    7.4730 C   0  0  0  0  0  0  0  0  0  0  0  0
    0.5890   24.4770    7.9170 C   0  0  0  0  0  0  0  0  0  0  0  0
    0.7120   25.3260    6.9030 N   0  0  0  0  0  0  0  0  0  0  0  0
    0.1140   24.7810    5.8140 C   0  0  0  0  0  0  0  0  0  0  0  0
   -0.3840   23.5800    6.1600 C   0  0  0  0  0  0  0  0  0  0  0  0
   -1.0940   22.6390    5.2370 C   0  0  0  0  0  0  0  0  0  0  0  0
   -2.6440   22.6360    5.4780 C   0  0  0  0  0  0  0  0  0  0  0  0
   -3.2540   23.8840    4.8860 C   0  0  0  0  0  0  0  0  0  0  0  0
   -3.5690   23.9380    3.7550 O   0  0  0  0  0  0  0  0  0  0  0  0
   -3.3820   24.9130    5.7100 N   0  0  0  0  0  0  0  0  0  0  0  0
   -3.8180   26.2840    5.3480 C   0  0  0  0  0  0  0  0  0  0  0  0
   -5.1860   26.3470    4.7190 C   0  0  0  0  0  0  0  0  0  0  0  0
   -2.7390   26.9560    4.4820 C   0  0  0  0  0  0  0  0  0  0  0  0
   -3.2370   21.3990    4.9280 N   0  0  0  0  0  0  0  0  0  0  0  0
   -3.0880   20.2570    5.5970 C   0  0  0  0  0  0  0  0  0  0  0  0
   -2.6350   20.2110    6.7410 O   0  0  0  0  0  0  0  0  0  0  0  0
   -3.7200   19.0190    4.9720 C   0  0  0  0  0  0  0  0  0  0  0  0
   -2.7440   17.9110    5.0110 N   0  0  0  0  0  0  0  0  0  0  0  0
   -1.5360   17.9570    4.4930 C   0  0  0  0  0  0  0  0  0  0  0  0
   -1.1740   18.9200    3.8160 O   0  0  0  0  0  0  0  0  0  0  0  0
   -0.7340   16.9050    4.7260 O   0  0  0  0  0  0  0  0  0  0  0  0
    0.6780   17.0080    4.3620 C   0  0  0  0  0  0  0  0  0  0  0  0
    1.4900   16.3950    5.3200 C   0  0  0  0  0  0  0  0  0  0  0  0
    1.1600   16.3900    6.7070 C   0  0  0  0  0  0  0  0  0  0  0  0
    1.9960   15.7760    7.6530 C   0  0  0  0  0  0  0  0  0  0  0  0
    3.1870   15.1910    7.1940 C   0  0  0  0  0  0  0  0  0  0  0  0
    3.5550   15.2130    5.8280 C   0  0  0  0  0  0  0  0  0  0  0  0
    2.7080   15.8430    4.8810 C   0  0  0  0  0  0  0  0  0  0  0  0
   -4.9540   18.6270    5.7760 C   0  0  0  0  0  0  0  0  0  0  0  0
   -6.1000   19.6180    5.5450 C   0  0  0  0  0  0  0  0  0  0  0  0
   -7.2040   19.3750    6.5730 C   0  0  0  0  0  0  0  0  0  0  0  0
   -8.4840   20.1950    6.2960 C   0  0  0  0  0  0  0  0  0  0  0  0
   -9.4690   19.7690    7.2920 N   0  0  0  0  0  0  0  0  0  0  0  0
  -10.6370   20.5940    7.6110 C   0  0  0  0  0  0  0  0  0  0  0  0
  -11.4020   19.9140    8.7630 C   0  0  0  0  0  0  0  0  0  0  0  0
  -12.0140   18.5250    8.2090 C   0  0  0  0  0  0  0  0  0  0  0  0
  -12.9630   17.8500    9.2140 C   0  0  0  0  0  0  0  0  0  0  0  0
  -14.1720   18.7510    9.4960 C   0  0  0  0  0  0  0  0  0  0  0  0
  -14.8810   19.1160    8.5100 O   0  0  0  0  0  0  0  0  0  0  0  0
  -14.1720   19.2120   10.6540 O   0  0  0  0  0  0  0  0  0  0  0  0
  -11.3850   20.4940    6.3370 O   0  0  0  0  0  0  0  0  0  0  0  0
  -10.3310   22.3920    7.7850 S   0  0  0  0  0  0  0  0  0  0  0  0
  -11.6010   22.8740    6.6430 C   0  0  0  0  0  0  0  0  0  0  0  0
  -11.1820   23.5020    5.3900 O   0  0  0  0  0  0  0  0  0  0  0  0
  -12.3340   21.5700    6.2620 C   0  0  0  0  0  0  0  0  0  0  0  0
  -12.7480   21.8810    4.8220 C   0  0  0  0  0  0  0  0  0  0  0  0
  -12.8760   20.7120    4.1230 O   0  0  0  0  0  0  0  0  0  0  0  0
  -11.5410   22.7270    4.2930 C   0  0  0  0  0  0  0  0  0  0  0  0
  -11.8320   23.6530    3.1220 C   0  0  0  0  0  0  0  0  0  0  0  0
  -13.0020   24.3940    3.4800 O   0  0  0  0  0  0  0  0  0  0  0  0
  -14.0220   24.8660    2.3920 P   0  0  0  0  0  0  0  0  0  0  0  0
  -14.8960   23.6080    2.0830 O   0  0  0  0  0  0  0  0  0  0  0  0
  -13.3600   25.4230    1.1860 O   0  0  0  0  0  0  0  0  0  0  0  0
  -15.0370   25.8170    3.1330 O   0  0  0  0  0  0  0  0  0  0  0  0
  -14.6810   27.3670    3.2810 P   0  0  0  0  0  0  0  0  0  0  0  0
  -15.5990   27.6010    4.5420 O   0  0  0  0  0  0  0  0  0  0  0  0
  -13.2790   27.7980    3.5770 O   0  0  0  0  0  0  0  0  0  0  0  0
  -15.3090   28.1080    2.0370 O   0  0  0  0  0  0  0  0  0  0  0  0
  -16.6530   27.9520    1.6530 C   0  0  0  0  0  0  0  0  0  0  0  0
  -16.7090   28.5820    0.2400 C   0  0  0  0  0  0  0  0  0  0  0  0
  -18.0420   28.5200   -0.2070 O   0  0  0  0  0  0  0  0  0  0  0  0
  -16.2960   30.1210    0.1250 C   0  0  0  0  0  0  0  0  0  0  0  0
  -15.5110   30.2300   -1.0630 O   0  0  0  0  0  0  0  0  0  0  0  0
  -17.6490   30.8470   -0.0290 C   0  0  0  0  0  0  0  0  0  0  0  0
  -17.5950   31.9950   -0.8500 O   0  0  0  0  0  0  0  0  0  0  0  0
  -18.4400   29.8100   -0.8210 C   0  0  0  0  0  0  0  0  0  0  0  0
  -19.9170   29.7380   -0.6620 N   0  0  0  0  0  0  0  0  0  0  0  0
  -21.8810   29.6990    0.1750 N   0  0  0  0  0  0  0  0  0  0  0  0
  -21.6070   28.6490   -3.6840 C   0  0  0  0  0  0  0  0  0  0  0  0
  -24.3180   28.9350   -1.3180 N   0  0  0  0  0  0  0  0  0  0  0  0
  -20.2039   30.3498    1.3707 H   0  0  0  0  0  0  0  0  0  0  0  0
    1.5423   25.4693    9.5328 H   0  0  0  0  0  0  0  0  0  0  0  0
    1.1047   23.5602   11.1242 H   0  0  0  0  0  0  0  0  0  0  0  0
   -0.2373   21.5997   10.3223 H   0  0  0  0  0  0  0  0  0  0  0  0
   -0.8790   21.4724    7.9053 H   0  0  0  0  0  0  0  0  0  0  0  0
    1.1815   26.2421    6.9376 H   0  0  0  0  0  0  0  0  0  0  0  0
    0.0476   25.2425    4.8177 H   0  0  0  0  0  0  0  0  0  0  0  0
   -0.7074   21.6222    5.4004 H   0  0  0  0  0  0  0  0  0  0  0  0
   -0.9116   22.9734    4.2051 H   0  0  0  0  0  0  0  0  0  0  0  0
   -2.8590   22.6461    6.5567 H   0  0  0  0  0  0  0  0  0  0  0  0
   -3.1564   24.7446    6.7008 H   0  0  0  0  0  0  0  0  0  0  0  0
   -3.9294   26.8504    6.2844 H   0  0  0  0  0  0  0  0  0  0  0  0
   -5.9513   26.3822    5.5084 H   0  0  0  0  0  0  0  0  0  0  0  0
   -5.2613   27.2496    4.0947 H   0  0  0  0  0  0  0  0  0  0  0  0
   -5.3440   25.4552    4.0947 H   0  0  0  0  0  0  0  0  0  0  0  0
   -1.9861   27.4249    5.1326 H   0  0  0  0  0  0  0  0  0  0  0  0
   -2.2548   26.1995    3.8470 H   0  0  0  0  0  0  0  0  0  0  0  0
   -3.2044   27.7242    3.8470 H   0  0  0  0  0  0  0  0  0  0  0  0
   -3.7582   21.4198    4.0398 H   0  0  0  0  0  0  0  0  0  0  0  0
   -4.0070   19.2296    3.9312 H   0  0  0  0  0  0  0  0  0  0  0  0
   -3.0304   17.0387    5.4779 H   0  0  0  0  0  0  0  0  0  0  0  0
    0.8353   16.5171    3.3903 H   0  0  0  0  0  0  0  0  0  0  0  0
    0.9476   18.0729    4.3050 H   0  0  0  0  0  0  0  0  0  0  0  0
    0.2323   16.8767    7.0424 H   0  0  0  0  0  0  0  0  0  0  0  0
    1.7267   15.7539    8.7193 H   0  0  0  0  0  0  0  0  0  0  0  0
    3.8541   14.7008    7.9183 H   0  0  0  0  0  0  0  0  0  0  0  0
    4.4946   14.7432    5.5018 H   0  0  0  0  0  0  0  0  0  0  0  0
    2.9980   15.8993    3.8214 H   0  0  0  0  0  0  0  0  0  0  0  0
   -5.2798   17.6226    5.4676 H   0  0  0  0  0  0  0  0  0  0  0  0
   -4.6929   18.6373    6.8445 H   0  0  0  0  0  0  0  0  0  0  0  0
   -5.7219   20.6456    5.6501 H   0  0  0  0  0  0  0  0  0  0  0  0
   -6.5064   19.4764    4.5327 H   0  0  0  0  0  0  0  0  0  0  0  0
   -7.4639   18.3062    6.5610 H   0  0  0  0  0  0  0  0  0  0  0  0
   -6.8161   19.6946    7.5514 H   0  0  0  0  0  0  0  0  0  0  0  0
   -8.2774   21.2704    6.4005 H   0  0  0  0  0  0  0  0  0  0  0  0
   -8.8521   20.0279    5.2730 H   0  0  0  0  0  0  0  0  0  0  0  0
   -9.8331   18.8604    6.9713 H   0  0  0  0  0  0  0  0  0  0  0  0
  -10.7154   19.7119    9.5983 H   0  0  0  0  0  0  0  0  0  0  0  0
  -12.2090   20.5690    9.1231 H   0  0  0  0  0  0  0  0  0  0  0  0
  -12.5710   18.7307    7.2830 H   0  0  0  0  0  0  0  0  0  0  0  0
  -11.1727   17.8381    8.0345 H   0  0  0  0  0  0  0  0  0  0  0  0
  -13.3128   16.8943    8.7966 H   0  0  0  0  0  0  0  0  0  0  0  0
  -12.4208   17.6756   10.1550 H   0  0  0  0  0  0  0  0  0  0  0  0
  -13.3146   19.3951   11.1139 H   0  0  0  0  0  0  0  0  0  0  0  0
  -12.1924   23.6448    7.1589 H   0  0  0  0  0  0  0  0  0  0  0  0
  -13.1851   21.2757    6.8937 H   0  0  0  0  0  0  0  0  0  0  0  0
  -13.7099   22.4063    4.7284 H   0  0  0  0  0  0  0  0  0  0  0  0
  -12.9588   19.9559    4.7567 H   0  0  0  0  0  0  0  0  0  0  0  0
  -10.7724   22.0434    3.9032 H   0  0  0  0  0  0  0  0  0  0  0  0
  -12.0161   23.0672    2.2093 H   0  0  0  0  0  0  0  0  0  0  0  0
  -10.9818   24.3205    2.9180 H   0  0  0  0  0  0  0  0  0  0  0  0
  -15.1859   23.1908    2.9327 H   0  0  0  0  0  0  0  0  0  0  0  0
  -15.0679   27.4656    5.3665 H   0  0  0  0  0  0  0  0  0  0  0  0
  -17.3226   28.4830    2.3456 H   0  0  0  0  0  0  0  0  0  0  0  0
  -16.9792   26.9015    1.6636 H   0  0  0  0  0  0  0  0  0  0  0  0
  -15.9772   28.0074   -0.3467 H   0  0  0  0  0  0  0  0  0  0  0  0
  -15.7211   30.5299    0.9690 H   0  0  0  0  0  0  0  0  0  0  0  0
  -14.5605   30.3620   -0.8195 H   0  0  0  0  0  0  0  0  0  0  0  0
  -18.0358   31.1759    0.9468 H   0  0  0  0  0  0  0  0  0  0  0  0
  -17.5569   32.8052   -0.2823 H   0  0  0  0  0  0  0  0  0  0  0  0
  -18.2311   30.0515   -1.8736 H   0  0  0  0  0  0  0  0  0  0  0  0
  -21.4393   28.3680   -4.7342 H   0  0  0  0  0  0  0  0  0  0  0  0
  -24.4344   28.9307   -0.2946 H   0  0  0  0  0  0  0  0  0  0  0  0
  -25.1455   28.9042   -1.9306 H   0  0  0  0  0  0  0  0  0  0  0  0
 79  5  1  0
 79  6  2  0
  5  3  2  0
  6  1  1  0
  3 80  1  0
  3  2  1  0
  1  2  2  0
  1 77  1  0
  2 78  1  0
 73 72  1  0
 75 74  1  0
 76 77  1  0
 76 71  1  0
 76 74  1  0
 77  4  1  0
 71 70  1  0
 74 72  1  0
 72 70  1  0
 78  4  2  0
 70 69  1  0
 63 61  2  0
 69 68  1  0
 68 65  1  0
 62 61  1  0
 61 64  1  0
 61 60  1  0
 59 60  1  0
 59 58  1  0
 64 65  1  0
 65 67  2  0
 65 66  1  0
 19 18  2  0
 30 29  2  0
 57 56  1  0
 58 56  1  0
 58 54  1  0
 32 31  1  0
 32 33  1  0
 23 21  1  0
 29 31  1  0
 29 28  1  0
 22 21  1  0
 56 55  1  0
 38 33  1  0
 38 37  2  0
 18 17  1  0
 18 20  1  0
 24 17  1  0
 24 25  1  0
 27 28  1  0
 27 25  1  0
 27 39  1  0
 16 17  1  0
 16 15  1  0
 33 34  2  0
 21 20  1  0
 54 53  1  0
 40 39  1  0
 40 41  1  0
 25 26  2  0
 14 15  2  0
 14 13  1  0
 37 36  1  0
 15 11  1  0
 55 51  1  0
 55 53  1  0
 42 41  1  0
 42 43  1  0
 51 44  1  0
 53 52  1  0
 34 35  1  0
 13 12  1  0
 36 35  2  0
 43 44  1  0
 11 12  1  0
 11 10  2  0
 44 52  1  0
 44 45  1  0
 12  7  2  0
 46 45  1  0
 46 47  1  0
 10  9  1  0
 49 48  2  0
  7  8  1  0
 47 48  1  0
 48 50  1  0
  9  8  2  0
  4 81  1  0
  7 82  1  0
  8 83  1  0
  9 84  1  0
 10 85  1  0
 13 86  1  0
 14 87  1  0
 16 88  1  0
 16 89  1  0
 17 90  1  0
 20 91  1  0
 21 92  1  0
 22 93  1  0
 22 94  1  0
 22 95  1  0
 23 96  1  0
 23 97  1  0
 23 98  1  0
 24 99  1  0
 27100  1  0
 28101  1  0
 32102  1  0
 32103  1  0
 34104  1  0
 35105  1  0
 36106  1  0
 37107  1  0
 38108  1  0
 39109  1  0
 39110  1  0
 40111  1  0
 40112  1  0
 41113  1  0
 41114  1  0
 42115  1  0
 42116  1  0
 43117  1  0
 45118  1  0
 45119  1  0
 46120  1  0
 46121  1  0
 47122  1  0
 47123  1  0
 50124  1  0
 53125  1  0
 55126  1  0
 56127  1  0
 57128  1  0
 58129  1  0
 59130  1  0
 59131  1  0
 62132  1  0
 66133  1  0
 69134  1  0
 69135  1  0
 70136  1  0
 72137  1  0
 73138  1  0
 74139  1  0
 75140  1  0
 76141  1  0
 79142  1  0
 80143  1  0
 80144  1  0
A    1
C1
A    2
C2
A    3
C3
A    4
C4
A    5
N1
A    6
N2
A    7
C5
A    8
C6
A    9
C7
A   10
C8
A   11
C9
A   12
C10
A   13
N3
A   14
C11
A   15
C12
A   16
C13
A   17
C14
A   18
C15
A   19
O1
A   20
N4
A   21
C16
A   22
C17
A   23
C18
A   24
N5
A   25
C19
A   26
O2
A   27
C20
A   28
N6
A   29
C21
A   30
O3
A   31
O4
A   32
C22
A   33
C23
A   34
C24
A   35
C25
A   36
C26
A   37
C27
A   38
C28
A   39
C29
A   40
C30
A   41
C31
A   42
C32
A   43
N7
A   44
C33
A   45
C34
A   46
C35
A   47
C36
A   48
C37
A   49
O5
A   50
O6
A   51
O7
A   52
S1
A   53
C38
A   54
O8
A   55
C39
A   56
C40
A   57
O9
A   58
C41
A   59
C42
A   60
O10
A   61
P1
A   62
O11
A   63
O12
A   64
O13
A   65
P2
A   66
O14
A   67
O15
A   68
O16
A   69
C43
A   70
C44
A   71
O17
A   72
C45
A   73
O18
A   74
C46
A   75
O19
A   76
C47
A   77
N8
A   78
N9
A   79
C48
A   80
N10
M  END
