6EUW_BYB_A_501
     RDKit          3D

 47 51  0  0  0  0  0  0  0  0999 V2000
   20.8890  -31.2330   -9.1450 C   0  0  0  0  0  0  0  0  0  0  0  0
   21.1630  -30.0150   -9.7620 C   0  0  0  0  0  0  0  0  0  0  0  0
   20.0530  -32.1710   -9.7100 C   0  0  0  0  0  0  0  0  0  0  0  0
   19.5430  -31.8050  -10.9570 C   0  0  0  0  0  0  0  0  0  0  0  0
   19.9000  -30.5730  -11.5270 C   0  0  0  0  0  0  0  0  0  0  0  0
   20.7050  -29.6900  -10.9540 N   0  0  0  0  0  0  0  0  0  0  0  0
   19.3010  -30.4380  -12.7330 N   0  0  0  0  0  0  0  0  0  0  0  0
   18.5440  -31.5510  -12.9820 N   0  0  0  0  0  0  0  0  0  0  0  0
   18.6720  -32.3810  -11.9490 C   0  0  0  0  0  0  0  0  0  0  0  0
   17.9600  -33.6560  -11.8640 C   0  0  0  0  0  0  0  0  0  0  0  0
   18.1140  -34.3340  -10.7190 N   0  0  0  0  0  0  0  0  0  0  0  0
   17.4580  -35.4820  -10.5730 C   0  0  0  0  0  0  0  0  0  0  0  0
   16.6280  -35.9270  -11.6070 C   0  0  0  0  0  0  0  0  0  0  0  0
   16.4910  -35.1720  -12.7490 C   0  0  0  0  0  0  0  0  0  0  0  0
   17.1720  -34.0350  -12.8910 N   0  0  0  0  0  0  0  0  0  0  0  0
   17.6110  -36.2140   -9.4380 N   0  0  0  0  0  0  0  0  0  0  0  0
   18.4210  -35.7340   -8.3190 C   0  0  0  0  0  0  0  0  0  0  0  0
   17.6300  -34.7090   -7.4710 C   0  0  0  0  0  0  0  0  0  0  0  0
   16.5060  -35.4090   -6.6950 C   0  0  0  0  0  0  0  0  0  0  0  0
   17.1090  -36.3890   -5.6760 C   0  0  0  0  0  0  0  0  0  0  0  0
   18.6200  -36.5390   -5.9380 C   0  0  0  0  0  0  0  0  0  0  0  0
   18.8320  -36.9340   -7.4180 C   0  0  0  0  0  0  0  0  0  0  0  0
   21.4130  -31.4520   -7.9330 F   0  0  0  0  0  0  0  0  0  0  0  0
   15.9430  -37.0620  -11.4720 F   0  0  0  0  0  0  0  0  0  0  0  0
   20.2580  -37.4000   -7.6190 C   0  0  0  0  0  0  0  0  0  0  0  0
   21.0920  -36.7550   -8.2250 O   0  0  0  0  0  0  0  0  0  0  0  0
   20.5740  -38.5730   -7.0820 O   0  0  0  0  0  0  0  0  0  0  0  0
   18.6290  -34.0850   -6.4800 C   0  0  0  0  0  0  0  0  0  0  0  0
   19.3200  -35.1990   -5.6720 C   0  0  0  0  0  0  0  0  0  0  0  0
   21.7929  -29.2883   -9.2279 H   0  0  0  0  0  0  0  0  0  0  0  0
   19.8085  -33.1255   -9.2210 H   0  0  0  0  0  0  0  0  0  0  0  0
   19.3989  -29.6283  -13.3621 H   0  0  0  0  0  0  0  0  0  0  0  0
   15.8156  -35.5086  -13.5494 H   0  0  0  0  0  0  0  0  0  0  0  0
   17.1449  -37.1295   -9.3642 H   0  0  0  0  0  0  0  0  0  0  0  0
   19.3185  -35.2440   -8.7245 H   0  0  0  0  0  0  0  0  0  0  0  0
   17.1715  -33.9447   -8.1158 H   0  0  0  0  0  0  0  0  0  0  0  0
   15.9040  -34.6559   -6.1654 H   0  0  0  0  0  0  0  0  0  0  0  0
   15.8691  -35.9639   -7.3996 H   0  0  0  0  0  0  0  0  0  0  0  0
   16.9501  -36.0032   -4.6582 H   0  0  0  0  0  0  0  0  0  0  0  0
   16.6206  -37.3694   -5.7775 H   0  0  0  0  0  0  0  0  0  0  0  0
   19.0384  -37.3109   -5.2753 H   0  0  0  0  0  0  0  0  0  0  0  0
   18.1939  -37.7820   -7.7072 H   0  0  0  0  0  0  0  0  0  0  0  0
   20.6016  -38.6755   -6.0977 H   0  0  0  0  0  0  0  0  0  0  0  0
   19.3862  -33.5123   -7.0355 H   0  0  0  0  0  0  0  0  0  0  0  0
   18.0914  -33.4152   -5.7927 H   0  0  0  0  0  0  0  0  0  0  0  0
   20.3749  -35.2706   -5.9754 H   0  0  0  0  0  0  0  0  0  0  0  0
   19.2602  -34.9626   -4.5994 H   0  0  0  0  0  0  0  0  0  0  0  0
  8  7  1  0
  8  9  2  0
 15 14  2  0
 15 10  1  0
 14 13  1  0
  7  5  1  0
  9 10  1  0
  9  4  1  0
 10 11  2  0
 13 24  1  0
 13 12  2  0
  5  4  2  0
  5  6  1  0
  4  3  1  0
  6  2  2  0
 11 12  1  0
 12 16  1  0
  2  1  1  0
  3  1  2  0
 16 17  1  0
  1 23  1  0
 17 18  1  0
 17 22  1  0
 26 25  2  0
 25 22  1  0
 25 27  1  0
 18 19  1  0
 18 28  1  0
 22 21  1  0
 19 20  1  0
 28 29  1  0
 21 20  1  0
 21 29  1  0
  2 30  1  0
  3 31  1  0
  7 32  1  0
 14 33  1  0
 16 34  1  0
 17 35  1  0
 18 36  1  0
 19 37  1  0
 19 38  1  0
 20 39  1  0
 20 40  1  0
 21 41  1  0
 22 42  1  0
 27 43  1  0
 28 44  1  0
 28 45  1  0
 29 46  1  0
 29 47  1  0
A    1
C1
A    2
C2
A    3
C4
A    4
C5
A    5
C6
A    6
N3
A    7
N7
A    8
N8
A    9
C9
A   10
C10
A   11
N11
A   12
C12
A   13
C13
A   14
C14
A   15
N15
A   16
N16
A   17
C17
A   18
C18
A   19
C19
A   20
C20
A   21
C21
A   22
C22
A   23
F23
A   24
F24
A   25
C25
A   26
O26
A   27
O27
A   28
C28
A   29
C29
M  END
