6EZQ_C7K_A_601
     RDKit          3D

 53 54  0  0  0  0  0  0  0  0999 V2000
  -25.7890   13.6580   29.8060 C   0  0  0  0  0  0  0  0  0  0  0  0
  -26.3310   14.2800   31.0360 C   0  0  0  0  0  0  0  0  0  0  0  0
  -24.5160   14.0530   29.3240 C   0  0  0  0  0  0  0  0  0  0  0  0
  -27.5340   13.7060   31.3030 N   0  0  0  0  0  0  0  0  0  0  0  0
  -23.8040   15.0320   30.0190 C   0  0  0  0  0  0  0  0  0  0  0  0
  -24.3040   15.6600   31.1460 C   0  0  0  0  0  0  0  0  0  0  0  0
  -24.4440   12.4240   27.3360 C   0  0  0  0  0  0  0  0  0  0  0  0
  -23.4360   11.2800   27.3040 C   0  0  0  0  0  0  0  0  0  0  0  0
  -23.7870   10.1640   26.3250 C   0  0  0  0  0  0  0  0  0  0  0  0
  -22.7010    9.1890   22.6800 C   0  0  0  0  0  0  0  0  0  0  0  0
  -22.8920   10.3820   21.7320 C   0  0  0  0  0  0  0  0  0  0  0  0
  -24.2610   10.5070   21.0620 C   0  0  0  0  0  0  0  0  0  0  0  0
  -24.5800   11.8870   20.4930 C   0  0  0  0  0  0  0  0  0  0  0  0
  -26.1840   12.9730   22.1370 C   0  0  0  0  0  0  0  0  0  0  0  0
  -26.7370   12.7420   29.4600 N   0  0  0  0  0  0  0  0  0  0  0  0
  -25.5490   15.3230   31.6480 C   0  0  0  0  0  0  0  0  0  0  0  0
  -23.9600   13.5220   28.1580 N   0  0  0  0  0  0  0  0  0  0  0  0
  -27.7570   12.7900   30.3460 O   0  0  0  0  0  0  0  0  0  0  0  0
  -25.9590   15.9670   32.8920 N   0  0  0  0  0  0  0  0  0  0  0  0
  -27.1120   15.8170   33.2730 O   0  0  0  0  0  0  0  0  0  0  0  0
  -25.1250   16.6110   33.5120 O   0  0  0  0  0  0  0  0  0  0  0  0
  -23.0350   10.2280   25.0000 C   0  0  0  0  0  0  0  0  0  0  0  0
  -23.5020    9.2100   23.9700 C   0  0  0  0  0  0  0  0  0  0  0  0
  -24.7960   12.9970   21.5200 C   0  0  0  0  0  0  0  0  0  0  0  0
  -26.2210   12.8710   23.6350 C   0  0  0  0  0  0  0  0  0  0  0  0
  -26.8180   13.8850   24.1970 O   0  0  0  0  0  0  0  0  0  0  0  0
  -25.7760   11.9220   24.2590 O   0  0  0  0  0  0  0  0  0  0  0  0
  -22.8051   15.3157   29.6561 H   0  0  0  0  0  0  0  0  0  0  0  0
  -23.7060   16.4349   31.6480 H   0  0  0  0  0  0  0  0  0  0  0  0
  -24.6085   12.7874   26.3109 H   0  0  0  0  0  0  0  0  0  0  0  0
  -25.3843   12.0508   27.7679 H   0  0  0  0  0  0  0  0  0  0  0  0
  -23.3740   10.8467   28.3131 H   0  0  0  0  0  0  0  0  0  0  0  0
  -22.4817   11.7092   26.9648 H   0  0  0  0  0  0  0  0  0  0  0  0
  -24.8647   10.2198   26.1119 H   0  0  0  0  0  0  0  0  0  0  0  0
  -23.4932    9.2199   26.8071 H   0  0  0  0  0  0  0  0  0  0  0  0
  -22.9785    8.2778   22.1298 H   0  0  0  0  0  0  0  0  0  0  0  0
  -21.6472    9.2329   22.9924 H   0  0  0  0  0  0  0  0  0  0  0  0
  -22.1365   10.3015   20.9366 H   0  0  0  0  0  0  0  0  0  0  0  0
  -22.7943   11.2763   22.3651 H   0  0  0  0  0  0  0  0  0  0  0  0
  -25.0298   10.2605   21.8091 H   0  0  0  0  0  0  0  0  0  0  0  0
  -24.2464    9.8181   20.2046 H   0  0  0  0  0  0  0  0  0  0  0  0
  -23.7435   12.1859   19.8442 H   0  0  0  0  0  0  0  0  0  0  0  0
  -25.5392   11.7778   19.9657 H   0  0  0  0  0  0  0  0  0  0  0  0
  -26.7004   13.8999   21.8470 H   0  0  0  0  0  0  0  0  0  0  0  0
  -26.6682   12.0606   21.7589 H   0  0  0  0  0  0  0  0  0  0  0  0
  -23.0892   13.9685   27.8367 H   0  0  0  0  0  0  0  0  0  0  0  0
  -21.9677   10.0523   25.1999 H   0  0  0  0  0  0  0  0  0  0  0  0
  -23.2295   11.2229   24.5730 H   0  0  0  0  0  0  0  0  0  0  0  0
  -24.5489    9.4350   23.7181 H   0  0  0  0  0  0  0  0  0  0  0  0
  -23.3670    8.2209   24.4320 H   0  0  0  0  0  0  0  0  0  0  0  0
  -24.0534   12.8808   22.3231 H   0  0  0  0  0  0  0  0  0  0  0  0
  -24.6860   13.9572   20.9947 H   0  0  0  0  0  0  0  0  0  0  0  0
  -25.7816   11.9340   25.2489 H   0  0  0  0  0  0  0  0  0  0  0  0
 13 12  1  0
 13 24  1  0
 12 11  1  0
 24 14  1  0
 11 10  1  0
 14 25  1  0
 10 23  1  0
 25 26  2  0
 25 27  1  0
 23 22  1  0
 22  9  1  0
  9  8  1  0
  8  7  1  0
  7 17  1  0
 17  3  1  0
  3  1  1  0
  3  5  2  0
 15  1  2  0
 15 18  1  0
  1  2  1  0
  5  6  1  0
 18  4  1  0
  2  4  2  0
  2 16  1  0
  6 16  2  0
 16 19  1  0
 19 20  1  0
 19 21  2  0
  5 28  1  0
  6 29  1  0
  7 30  1  0
  7 31  1  0
  8 32  1  0
  8 33  1  0
  9 34  1  0
  9 35  1  0
 10 36  1  0
 10 37  1  0
 11 38  1  0
 11 39  1  0
 12 40  1  0
 12 41  1  0
 13 42  1  0
 13 43  1  0
 14 44  1  0
 14 45  1  0
 17 46  1  0
 22 47  1  0
 22 48  1  0
 23 49  1  0
 23 50  1  0
 24 51  1  0
 24 52  1  0
 27 53  1  0
M  CHG  2  19   1  20  -1
A    1
C1
A    2
C2
A    3
C3
A    4
N6
A    5
C7
A    6
C10
A    7
C12
A    8
C15
A    9
C16
A   10
C19
A   11
C20
A   12
C21
A   13
C22
A   14
C24
A   15
N4
A   16
C5
A   17
N8
A   18
O9
A   19
N11
A   20
O13
A   21
O14
A   22
C17
A   23
C18
A   24
C23
A   25
C25
A   26
O26
A   27
O27
M  END
