7GCH_LPF_G_246
     RDKit          3D

 49 49  0  0  0  0  0  0  0  0999 V2000
   34.9640   76.3580   85.4680 C   0  0  0  0  0  0  0  0  0  0  0  0
   35.0840   74.8140   85.4240 F   0  0  0  0  0  0  0  0  0  0  0  0
   34.4980   76.8280   83.9880 F   0  0  0  0  0  0  0  0  0  0  0  0
   33.7480   76.8190   86.3780 F   0  0  0  0  0  0  0  0  0  0  0  0
   36.1510   77.0760   86.0450 C   0  0  0  0  0  0  0  0  0  0  0  0
   35.8950   78.5660   86.0070 O   0  0  0  0  0  0  0  0  0  0  0  0
   36.1890   76.7310   87.4500 C   0  0  0  0  0  0  0  0  0  0  0  0
   37.2740   77.6330   88.1070 C   0  0  0  0  0  0  0  0  0  0  0  0
   37.7160   77.5960   89.5630 C   0  0  0  0  0  0  0  0  0  0  0  0
   36.9550   77.1780   90.5620 C   0  0  0  0  0  0  0  0  0  0  0  0
   37.3930   77.2180   91.8660 C   0  0  0  0  0  0  0  0  0  0  0  0
   38.6340   77.6800   92.1230 C   0  0  0  0  0  0  0  0  0  0  0  0
   39.4260   78.1040   91.1030 C   0  0  0  0  0  0  0  0  0  0  0  0
   38.9260   78.0580   89.8530 C   0  0  0  0  0  0  0  0  0  0  0  0
   36.6690   75.3320   87.5100 N   0  0  0  0  0  0  0  0  0  0  0  0
   35.9430   74.2590   88.0850 C   0  0  0  0  0  0  0  0  0  0  0  0
   34.8830   74.4890   88.6240 O   0  0  0  0  0  0  0  0  0  0  0  0
   36.8270   73.0220   87.9090 C   0  0  0  0  0  0  0  0  0  0  0  0
   36.9780   72.3140   89.1660 N   0  0  0  0  0  0  0  0  0  0  0  0
   37.0850   72.9250   90.2730 C   0  0  0  0  0  0  0  0  0  0  0  0
   37.9670   74.0270   90.6440 O   0  0  0  0  0  0  0  0  0  0  0  0
   36.3980   72.5650   91.2850 C   0  0  0  0  0  0  0  0  0  0  0  0
   36.5740   72.0190   86.7960 C   0  0  0  0  0  0  0  0  0  0  0  0
   37.6070   70.8850   86.5800 C   0  0  0  0  0  0  0  0  0  0  0  0
   38.0190   70.1860   87.9080 C   0  0  0  0  0  0  0  0  0  0  0  0
   38.9330   71.4000   85.9270 C   0  0  0  0  0  0  0  0  0  0  0  0
   35.2156   76.8554   87.9471 H   0  0  0  0  0  0  0  0  0  0  0  0
   38.1893   77.4510   87.5247 H   0  0  0  0  0  0  0  0  0  0  0  0
   36.7417   78.5956   88.1006 H   0  0  0  0  0  0  0  0  0  0  0  0
   35.9490   76.7896   90.3449 H   0  0  0  0  0  0  0  0  0  0  0  0
   36.7419   76.8788   92.6852 H   0  0  0  0  0  0  0  0  0  0  0  0
   39.0050   77.7136   93.1580 H   0  0  0  0  0  0  0  0  0  0  0  0
   40.4446   78.4736   91.2925 H   0  0  0  0  0  0  0  0  0  0  0  0
   39.5548   78.4232   89.0276 H   0  0  0  0  0  0  0  0  0  0  0  0
   37.5936   75.1241   87.1064 H   0  0  0  0  0  0  0  0  0  0  0  0
   37.7457   73.5100   87.5515 H   0  0  0  0  0  0  0  0  0  0  0  0
   36.9990   71.2842   89.1598 H   0  0  0  0  0  0  0  0  0  0  0  0
   36.9295   72.8435   92.2069 H   0  0  0  0  0  0  0  0  0  0  0  0
   35.4190   73.0660   91.2606 H   0  0  0  0  0  0  0  0  0  0  0  0
   36.2528   71.4749   91.2606 H   0  0  0  0  0  0  0  0  0  0  0  0
   35.6047   71.5415   87.0021 H   0  0  0  0  0  0  0  0  0  0  0  0
   36.6305   72.6166   85.8742 H   0  0  0  0  0  0  0  0  0  0  0  0
   37.0920   70.1770   85.9140 H   0  0  0  0  0  0  0  0  0  0  0  0
   37.6667   70.7837   88.7616 H   0  0  0  0  0  0  0  0  0  0  0  0
   37.5670   69.1841   87.9505 H   0  0  0  0  0  0  0  0  0  0  0  0
   39.1145   70.0962   87.9505 H   0  0  0  0  0  0  0  0  0  0  0  0
   39.6469   71.6773   86.7166 H   0  0  0  0  0  0  0  0  0  0  0  0
   39.3671   70.6051   85.3028 H   0  0  0  0  0  0  0  0  0  0  0  0
   38.7168   72.2795   85.3028 H   0  0  0  0  0  0  0  0  0  0  0  0
  1  2  1  0
  1  3  1  0
  1  4  1  0
  1  5  1  0
  5  6  2  0
  5  7  1  0
  7  8  1  0
  7 15  1  0
  8  9  1  0
  9 10  2  0
  9 14  1  0
 10 11  1  0
 11 12  2  0
 12 13  1  0
 13 14  2  0
 15 16  1  0
 16 17  2  0
 16 18  1  0
 18 19  1  0
 18 23  1  0
 19 20  1  0
 20 21  2  0
 20 22  1  0
 23 24  1  0
 24 25  1  0
 24 26  1  0
  7 27  1  0
  8 28  1  0
  8 29  1  0
 10 30  1  0
 11 31  1  0
 12 32  1  0
 13 33  1  0
 14 34  1  0
 15 35  1  0
 18 36  1  0
 19 37  1  0
 22 38  1  0
 22 39  1  0
 22 40  1  0
 23 41  1  0
 23 42  1  0
 24 43  1  0
 25 44  1  0
 25 45  1  0
 25 46  1  0
 26 47  1  0
 26 48  1  0
 26 49  1  0
A    1
C1
A    2
F11
A    3
F12
A    4
F13
A    5
C2
A    6
O2
A    7
C3
A    8
C4
A    9
CP1
A   10
CP2
A   11
CP3
A   12
CP4
A   13
CP5
A   14
CP6
A   15
N3
A   16
CN1
A   17
ON1
A   18
CN2
A   19
NL1
A   20
CL1
A   21
OL1
A   22
CL2
A   23
CA1
A   24
CA2
A   25
CA3
A   26
CA4
M  END
