830C_RS1_A_1
     RDKit          3D

 48 50  0  0  0  0  0  0  0  0999 V2000
   -7.5670   27.8520   49.3020 C   0  0  0  0  0  0  0  0  0  0  0  0
   -8.8400   27.6210   48.8430 C   0  0  0  0  0  0  0  0  0  0  0  0
   -9.7960   26.8980   49.5520 C   0  0  0  0  0  0  0  0  0  0  0  0
   -9.4490   26.3890   50.7850 C   0  0  0  0  0  0  0  0  0  0  0  0
   -8.1740   26.5880   51.2560 C   0  0  0  0  0  0  0  0  0  0  0  0
   -7.2200   27.3250   50.5210 C   0  0  0  0  0  0  0  0  0  0  0  0
   -7.9490   25.9670   52.4690 O   0  0  0  0  0  0  0  0  0  0  0  0
   -7.3430   26.6340   53.4810 C   0  0  0  0  0  0  0  0  0  0  0  0
   -6.8690   25.8010   54.4830 C   0  0  0  0  0  0  0  0  0  0  0  0
   -6.2710   26.3220   55.6000 C   0  0  0  0  0  0  0  0  0  0  0  0
   -6.1960   27.7030   55.7310 C   0  0  0  0  0  0  0  0  0  0  0  0
   -6.6340   28.5470   54.7140 C   0  0  0  0  0  0  0  0  0  0  0  0
   -7.2090   28.0220   53.5770 C   0  0  0  0  0  0  0  0  0  0  0  0
   -5.5190   28.4130   57.2150 S   0  0  0  0  0  0  0  0  0  0  0  0
   -5.5820   27.5070   58.3390 O   0  0  0  0  0  0  0  0  0  0  0  0
   -6.2980   29.6010   57.3620 O   0  0  0  0  0  0  0  0  0  0  0  0
   -3.8780   28.9410   56.7980 C   0  0  0  0  0  0  0  0  0  0  0  0
   -2.6760   27.9890   57.0640 C   0  0  0  0  0  0  0  0  0  0  0  0
   -2.6850   27.4130   58.5200 C   0  0  0  0  0  0  0  0  0  0  0  0
   -1.3450   26.8280   58.9610 C   0  0  0  0  0  0  0  0  0  0  0  0
   -0.3120   27.8030   58.7340 O   0  0  0  0  0  0  0  0  0  0  0  0
   -0.1380   28.1300   57.3600 C   0  0  0  0  0  0  0  0  0  0  0  0
   -1.3990   28.8550   56.8740 C   0  0  0  0  0  0  0  0  0  0  0  0
   -2.6820   26.8850   55.9850 C   0  0  0  0  0  0  0  0  0  0  0  0
   -2.7380   25.5740   56.2570 N   0  0  0  0  0  0  0  0  0  0  0  0
   -2.5940   27.1550   54.7780 O   0  0  0  0  0  0  0  0  0  0  0  0
   -2.5310   24.7710   55.1030 O   0  0  0  0  0  0  0  0  0  0  0  0
   -9.3060   28.2050   47.3000 Cl  0  0  0  0  0  0  0  0  0  0  0  0
   -6.8485   28.4402   48.7122 H   0  0  0  0  0  0  0  0  0  0  0  0
  -10.8026   26.7372   49.1385 H   0  0  0  0  0  0  0  0  0  0  0  0
  -10.1835   25.8307   51.3841 H   0  0  0  0  0  0  0  0  0  0  0  0
   -6.2068   27.4756   50.9220 H   0  0  0  0  0  0  0  0  0  0  0  0
   -6.9742   24.7109   54.3800 H   0  0  0  0  0  0  0  0  0  0  0  0
   -5.8590   25.6609   56.3767 H   0  0  0  0  0  0  0  0  0  0  0  0
   -6.5207   29.6362   54.8184 H   0  0  0  0  0  0  0  0  0  0  0  0
   -7.5540   28.6790   52.7650 H   0  0  0  0  0  0  0  0  0  0  0  0
   -3.8776   29.1636   55.7208 H   0  0  0  0  0  0  0  0  0  0  0  0
   -3.6963   29.7837   57.4812 H   0  0  0  0  0  0  0  0  0  0  0  0
   -2.9534   28.2247   59.2122 H   0  0  0  0  0  0  0  0  0  0  0  0
   -3.4137   26.5891   58.5335 H   0  0  0  0  0  0  0  0  0  0  0  0
   -1.3864   26.5766   60.0311 H   0  0  0  0  0  0  0  0  0  0  0  0
   -1.1293   25.9163   58.3846 H   0  0  0  0  0  0  0  0  0  0  0  0
    0.7371   28.7860   57.2417 H   0  0  0  0  0  0  0  0  0  0  0  0
    0.0243   27.2156   56.7705 H   0  0  0  0  0  0  0  0  0  0  0  0
   -1.2845   29.0899   55.8055 H   0  0  0  0  0  0  0  0  0  0  0  0
   -1.5167   29.7711   57.4714 H   0  0  0  0  0  0  0  0  0  0  0  0
   -2.9117   25.1912   57.1973 H   0  0  0  0  0  0  0  0  0  0  0  0
   -2.2937   23.8505   55.3797 H   0  0  0  0  0  0  0  0  0  0  0  0
  1  2  2  0
  1  6  1  0
  2  3  1  0
  2 28  1  0
  3  4  2  0
  4  5  1  0
  5  6  2  0
  5  7  1  0
  7  8  1  0
  8  9  2  0
  8 13  1  0
  9 10  1  0
 10 11  2  0
 11 12  1  0
 11 14  1  0
 12 13  2  0
 14 15  2  0
 14 16  2  0
 14 17  1  0
 17 18  1  0
 18 19  1  0
 18 23  1  0
 18 24  1  0
 19 20  1  0
 20 21  1  0
 21 22  1  0
 22 23  1  0
 24 25  1  0
 24 26  2  0
 25 27  1  0
  1 29  1  0
  3 30  1  0
  4 31  1  0
  6 32  1  0
  9 33  1  0
 10 34  1  0
 12 35  1  0
 13 36  1  0
 17 37  1  0
 17 38  1  0
 19 39  1  0
 19 40  1  0
 20 41  1  0
 20 42  1  0
 22 43  1  0
 22 44  1  0
 23 45  1  0
 23 46  1  0
 25 47  1  0
 27 48  1  0
A    1
C1
A    2
C2
A    3
C3
A    4
C4
A    5
C5
A    6
C6
A    7
O11
A    8
C12
A    9
C13
A   10
C14
A   11
C15
A   12
C16
A   13
C17
A   14
S22
A   15
O23
A   16
O24
A   17
C25
A   18
C26
A   19
C29
A   20
C30
A   21
O31
A   22
C32
A   23
C33
A   24
C40
A   25
N41
A   26
O42
A   27
O43
A   28
CL2
M  END
