1Z3W_IDC_A_600
     RDKit          3D

 47 49  0  0  0  0  0  0  0  0999 V2000
    3.9750    9.4380   23.4730 C   0  0  0  0  0  0  0  0  0  0  0  0
    5.0620    8.6900   22.7150 C   0  0  0  0  0  0  0  0  0  0  0  0
    5.0320    7.2200   23.0960 C   0  0  0  0  0  0  0  0  0  0  0  0
    5.1820    7.0730   24.6140 C   0  0  0  0  0  0  0  0  0  0  0  0
    4.1160    7.8920   25.3410 C   0  0  0  0  0  0  0  0  0  0  0  0
    4.3940    7.8950   26.8350 C   0  0  0  0  0  0  0  0  0  0  0  0
    4.8960    8.8660   21.3160 O   0  0  0  0  0  0  0  0  0  0  0  0
    6.0480    6.5230   22.3690 O   0  0  0  0  0  0  0  0  0  0  0  0
    5.0270    5.7160   25.0120 O   0  0  0  0  0  0  0  0  0  0  0  0
    4.1650    9.2310   24.8620 O   0  0  0  0  0  0  0  0  0  0  0  0
    5.7070    8.4100   27.0340 O   0  0  0  0  0  0  0  0  0  0  0  0
    1.5840   14.0820   23.2640 C   0  0  0  0  0  0  0  0  0  0  0  0
    1.8270   13.4460   24.5940 C   0  0  0  0  0  0  0  0  0  0  0  0
    3.0830   12.6080   24.4380 C   0  0  0  0  0  0  0  0  0  0  0  0
    2.8940   11.6170   23.2790 C   0  0  0  0  0  0  0  0  0  0  0  0
    2.7030   12.3070   21.9290 C   0  0  0  0  0  0  0  0  0  0  0  0
    1.9010   11.4640   20.9260 C   0  0  0  0  0  0  0  0  0  0  0  0
    2.0540   14.4230   25.6000 O   0  0  0  0  0  0  0  0  0  0  0  0
    3.3300   11.9490   25.6820 O   0  0  0  0  0  0  0  0  0  0  0  0
    4.0650   10.8210   23.1740 O   0  0  0  0  0  0  0  0  0  0  0  0
    1.9600   13.5510   22.1140 N   0  0  0  0  0  0  0  0  0  0  0  0
    0.7950   10.7580   21.4830 O   0  0  0  0  0  0  0  0  0  0  0  0
    0.9500   15.2310   23.0400 N   0  0  0  0  0  0  0  0  0  0  0  0
    0.9550   15.4000   21.7140 C   0  0  0  0  0  0  0  0  0  0  0  0
    1.5850   14.3660   21.1350 C   0  0  0  0  0  0  0  0  0  0  0  0
    2.9814    9.0699   23.1776 H   0  0  0  0  0  0  0  0  0  0  0  0
    6.0464    9.0976   22.9885 H   0  0  0  0  0  0  0  0  0  0  0  0
    4.0651    6.7707   22.8256 H   0  0  0  0  0  0  0  0  0  0  0  0
    6.1885    7.4314   24.8757 H   0  0  0  0  0  0  0  0  0  0  0  0
    3.1253    7.4512   25.1560 H   0  0  0  0  0  0  0  0  0  0  0  0
    3.6603    8.5321   27.3506 H   0  0  0  0  0  0  0  0  0  0  0  0
    4.3159    6.8759   27.2417 H   0  0  0  0  0  0  0  0  0  0  0  0
    4.2264    9.5760   21.1499 H   0  0  0  0  0  0  0  0  0  0  0  0
    6.6735    6.0939   23.0052 H   0  0  0  0  0  0  0  0  0  0  0  0
    5.0207    5.6607   26.0004 H   0  0  0  0  0  0  0  0  0  0  0  0
    5.8898    8.4817   28.0043 H   0  0  0  0  0  0  0  0  0  0  0  0
    0.9526   12.8508   24.8960 H   0  0  0  0  0  0  0  0  0  0  0  0
    3.9563   13.2301   24.1922 H   0  0  0  0  0  0  0  0  0  0  0  0
    1.9914   11.0291   23.5019 H   0  0  0  0  0  0  0  0  0  0  0  0
    3.7146   12.4731   21.5301 H   0  0  0  0  0  0  0  0  0  0  0  0
    1.5182   12.1363   20.1440 H   0  0  0  0  0  0  0  0  0  0  0  0
    2.5932   10.6996   20.5432 H   0  0  0  0  0  0  0  0  0  0  0  0
    1.9571   14.0061   26.4927 H   0  0  0  0  0  0  0  0  0  0  0  0
    3.1019   12.5576   26.4288 H   0  0  0  0  0  0  0  0  0  0  0  0
    0.8464   10.7908   22.4711 H   0  0  0  0  0  0  0  0  0  0  0  0
    0.5117   16.2537   21.1804 H   0  0  0  0  0  0  0  0  0  0  0  0
    1.7573   14.2217   20.0582 H   0  0  0  0  0  0  0  0  0  0  0  0
  1  2  1  0
  1 10  1  0
  1 20  1  0
  2  3  1  0
  2  7  1  0
  3  4  1  0
  3  8  1  0
  4  5  1  0
  4  9  1  0
  5  6  1  0
  5 10  1  0
  6 11  1  0
 12 13  1  0
 12 21  1  0
 12 23  2  0
 13 14  1  0
 13 18  1  0
 14 15  1  0
 14 19  1  0
 15 16  1  0
 15 20  1  0
 16 17  1  0
 16 21  1  0
 17 22  1  0
 21 25  1  0
 23 24  1  0
 24 25  2  0
  1 26  1  0
  2 27  1  0
  3 28  1  0
  4 29  1  0
  5 30  1  0
  6 31  1  0
  6 32  1  0
  7 33  1  0
  8 34  1  0
  9 35  1  0
 11 36  1  0
 13 37  1  0
 14 38  1  0
 15 39  1  0
 16 40  1  0
 17 41  1  0
 17 42  1  0
 18 43  1  0
 19 44  1  0
 22 45  1  0
 24 46  1  0
 25 47  1  0
A    1
C1A
A    2
C2A
A    3
C3A
A    4
C4A
A    5
C5A
A    6
C6A
A    7
O2A
A    8
O3A
A    9
O4A
A   10
O5A
A   11
O6A
A   12
C1B
A   13
C2B
A   14
C3B
A   15
C4B
A   16
C5B
A   17
C6B
A   18
O2B
A   19
O3B
A   20
O4B
A   21
N1B
A   22
O6B
A   23
N2B
A   24
C7B
A   25
C8B
M  END
