8ACN_NIC_A_755
     RDKit          3D

 20 19  0  0  0  0  0  0  0  0999 V2000
   35.4250   34.7760   69.9560 C   0  0  0  0  0  0  0  0  0  0  0  0
   35.3280   36.0110   70.0430 O   0  0  0  0  0  0  0  0  0  0  0  0
   34.8870   34.1870   69.0170 O   0  0  0  0  0  0  0  0  0  0  0  0
   36.2810   33.9420   70.9550 C   0  0  0  0  0  0  0  0  0  0  0  0
   35.7450   34.1780   72.4070 C   0  0  0  0  0  0  0  0  0  0  0  0
   36.4460   32.5570   70.6350 O   0  0  0  0  0  0  0  0  0  0  0  0
   36.6340   33.9480   73.5720 C   0  0  0  0  0  0  0  0  0  0  0  0
   37.8090   34.8360   73.2970 C   0  0  0  0  0  0  0  0  0  0  0  0
   37.8770   36.0730   73.0770 O   0  0  0  0  0  0  0  0  0  0  0  0
   38.8830   34.2060   73.3250 O   0  0  0  0  0  0  0  0  0  0  0  0
   34.3000   33.9290   72.6530 N   0  0  0  0  0  0  0  0  0  0  0  0
   33.4330   33.9580   71.7680 O   0  0  0  0  0  0  0  0  0  0  0  0
   33.8590   33.6510   73.7490 O   0  0  0  0  0  0  0  0  0  0  0  0
   34.2302   33.4679   69.1949 H   0  0  0  0  0  0  0  0  0  0  0  0
   37.3121   34.3160   70.8721 H   0  0  0  0  0  0  0  0  0  0  0  0
   35.8151   35.2744   72.3527 H   0  0  0  0  0  0  0  0  0  0  0  0
   36.5087   32.0304   71.4710 H   0  0  0  0  0  0  0  0  0  0  0  0
   36.1354   34.2349   74.5096 H   0  0  0  0  0  0  0  0  0  0  0  0
   36.9151   32.8915   73.6941 H   0  0  0  0  0  0  0  0  0  0  0  0
   39.2932   33.9654   74.1933 H   0  0  0  0  0  0  0  0  0  0  0  0
  1  2  2  0
  1  3  1  0
  1  4  1  0
  4  5  1  0
  4  6  1  0
  5  7  1  0
  5 11  1  0
  7  8  1  0
  8  9  2  0
  8 10  1  0
 11 12  1  0
 11 13  2  0
  3 14  1  0
  4 15  1  0
  5 16  1  0
  6 17  1  0
  7 18  1  0
  7 19  1  0
 10 20  1  0
M  CHG  2  11   1  12  -1
A    1
C1
A    2
O1
A    3
O2
A    4
C2
A    5
C3
A    6
O7
A    7
C4
A    8
C5
A    9
O3
A   10
O4
A   11
N6
A   12
O5
A   13
O6
M  END
