8CPP_TCM_A_422
     RDKit          3D

 27 28  0  0  0  0  0  0  0  0999 V2000
   46.1050   44.2190   13.0320 C   0  0  0  0  0  0  0  0  0  0  0  0
   46.9940   45.4950   13.1100 C   0  0  0  0  0  0  0  0  0  0  0  0
   47.4380   45.6200   14.5900 C   0  0  0  0  0  0  0  0  0  0  0  0
   46.7470   44.3560   15.2050 C   0  0  0  0  0  0  0  0  0  0  0  0
   45.1940   44.6420   15.3060 C   0  0  0  0  0  0  0  0  0  0  0  0
   44.7530   44.5540   13.7950 C   0  0  0  0  0  0  0  0  0  0  0  0
   46.8470   43.2700   14.0720 C   0  0  0  0  0  0  0  0  0  0  0  0
   48.2680   42.8010   13.7100 C   0  0  0  0  0  0  0  0  0  0  0  0
   46.2170   41.8870   14.3350 C   0  0  0  0  0  0  0  0  0  0  0  0
   45.8040   43.6720   11.6660 C   0  0  0  0  0  0  0  0  0  0  0  0
   47.3290   46.2430   12.1970 S   0  0  0  0  0  0  0  0  0  0  0  0
   48.5324   45.5736   14.6907 H   0  0  0  0  0  0  0  0  0  0  0  0
   47.1647   46.5707   15.0711 H   0  0  0  0  0  0  0  0  0  0  0  0
   47.1876   44.0814   16.1748 H   0  0  0  0  0  0  0  0  0  0  0  0
   44.6853   43.8818   15.9170 H   0  0  0  0  0  0  0  0  0  0  0  0
   44.9470   45.5995   15.7879 H   0  0  0  0  0  0  0  0  0  0  0  0
   44.3346   45.5115   13.4513 H   0  0  0  0  0  0  0  0  0  0  0  0
   43.9666   43.8046   13.6216 H   0  0  0  0  0  0  0  0  0  0  0  0
   48.8380   42.6129   14.6318 H   0  0  0  0  0  0  0  0  0  0  0  0
   48.2092   41.8746   13.1198 H   0  0  0  0  0  0  0  0  0  0  0  0
   48.7721   43.5804   13.1198 H   0  0  0  0  0  0  0  0  0  0  0  0
   46.1405   41.7191   15.4194 H   0  0  0  0  0  0  0  0  0  0  0  0
   45.2132   41.8501   13.8866 H   0  0  0  0  0  0  0  0  0  0  0  0
   46.8479   41.1054   13.8866 H   0  0  0  0  0  0  0  0  0  0  0  0
   45.2758   42.7121   11.7636 H   0  0  0  0  0  0  0  0  0  0  0  0
   45.1710   44.3846   11.1170 H   0  0  0  0  0  0  0  0  0  0  0  0
   46.7448   43.5187   11.1170 H   0  0  0  0  0  0  0  0  0  0  0  0
  1  2  1  0
  1  6  1  0
  1  7  1  0
  1 10  1  0
  2  3  1  0
  2 11  2  0
  3  4  1  0
  4  5  1  0
  4  7  1  0
  5  6  1  0
  7  8  1  0
  7  9  1  0
  3 12  1  0
  3 13  1  0
  4 14  1  0
  5 15  1  0
  5 16  1  0
  6 17  1  0
  6 18  1  0
  8 19  1  0
  8 20  1  0
  8 21  1  0
  9 22  1  0
  9 23  1  0
  9 24  1  0
 10 25  1  0
 10 26  1  0
 10 27  1  0
A    1
C1
A    2
C2
A    3
C3
A    4
C4
A    5
C5
A    6
C6
A    7
C7
A    8
C8
A    9
C9
A   10
C10
A   11
S2
M  END
