1TEO_DU_?_308
     RDKit          3D

 16 15  0  0  0  0  0  0  0  0999 V2000
   81.1040    6.5590   16.5000 P   0  0  0  0  0  0  0  0  0  0  0  0
   75.9210    9.9890   18.8460 N   0  0  0  0  0  0  0  0  0  0  0  0
   74.8220   10.8560   19.0200 C   0  0  0  0  0  0  0  0  0  0  0  0
   74.2370   11.4170   18.0930 O   0  0  0  0  0  0  0  0  0  0  0  0
   74.5380   11.1680   20.3530 N   0  0  0  0  0  0  0  0  0  0  0  0
   75.5730   10.9850   21.5250 C   0  0  0  0  0  0  0  0  0  0  0  0
   76.0200   12.2310   22.0790 O   0  0  0  0  0  0  0  0  0  0  0  0
   76.8400   10.2350   21.0350 C   0  0  0  0  0  0  0  0  0  0  0  0
   76.9850    9.8960   19.7190 C   0  0  0  0  0  0  0  0  0  0  0  0
   81.1040    6.5590   17.7200 H   0  0  0  0  0  0  0  0  0  0  0  0
   81.1040    7.7092   16.0933 H   0  0  0  0  0  0  0  0  0  0  0  0
   82.1001    5.9839   16.0933 H   0  0  0  0  0  0  0  0  0  0  0  0
   75.9296    9.3852   18.0116 H   0  0  0  0  0  0  0  0  0  0  0  0
   73.6034   11.5366   20.5799 H   0  0  0  0  0  0  0  0  0  0  0  0
   77.6299    9.9734   21.7545 H   0  0  0  0  0  0  0  0  0  0  0  0
   77.9608    9.5452   19.3519 H   0  0  0  0  0  0  0  0  0  0  0  0
  2  3  1  0
  2  9  1  0
  3  4  2  0
  3  5  1  0
  5  6  1  0
  6  7  2  0
  6  8  1  0
  8  9  2  0
  1 10  1  0
  1 11  1  0
  1 12  1  0
  2 13  1  0
  5 14  1  0
  8 15  1  0
  9 16  1  0
A    1
P
A    2
N1
A    3
C2
A    4
O2
A    5
N3
A    6
C4
A    7
O4
A    8
C5
A    9
C6
M  END
